
Circuit: * spicenetlist

Doing analysis at TEMP = 0.000000 and TNOM = 27.000000

Warning: can't parse 'to_match': ignored
Warning: can't parse 'source': ignored
Warning: can't parse 'v_v1#branch': ignored


No. of Data Rows : 1128
                                 * spicenetlist
                                 AC Analysis  Sat Nov  4 15:15:42  2017
--------------------------------------------------------------------------------
Index   frequency       vm(to_match)    vm(source)      
--------------------------------------------------------------------------------
0	1.000000e+07	2.286436e-01	3.300000e+00	
1	1.004616e+07	2.297042e-01	3.300000e+00	
2	1.009253e+07	2.307698e-01	3.300000e+00	
3	1.013911e+07	2.318403e-01	3.300000e+00	
4	1.018591e+07	2.329159e-01	3.300000e+00	
5	1.023293e+07	2.339965e-01	3.300000e+00	
6	1.028016e+07	2.350822e-01	3.300000e+00	
7	1.032761e+07	2.361730e-01	3.300000e+00	
8	1.037528e+07	2.372689e-01	3.300000e+00	
9	1.042317e+07	2.383699e-01	3.300000e+00	
10	1.047129e+07	2.394761e-01	3.300000e+00	
11	1.051962e+07	2.405875e-01	3.300000e+00	
12	1.056818e+07	2.417041e-01	3.300000e+00	
13	1.061696e+07	2.428259e-01	3.300000e+00	
14	1.066596e+07	2.439530e-01	3.300000e+00	
15	1.071519e+07	2.450854e-01	3.300000e+00	
16	1.076465e+07	2.462231e-01	3.300000e+00	
17	1.081434e+07	2.473662e-01	3.300000e+00	
18	1.086426e+07	2.485146e-01	3.300000e+00	
19	1.091440e+07	2.496684e-01	3.300000e+00	
20	1.096478e+07	2.508276e-01	3.300000e+00	
21	1.101539e+07	2.519923e-01	3.300000e+00	
22	1.106624e+07	2.531624e-01	3.300000e+00	
23	1.111732e+07	2.543380e-01	3.300000e+00	
24	1.116863e+07	2.555192e-01	3.300000e+00	
25	1.122018e+07	2.567059e-01	3.300000e+00	
26	1.127197e+07	2.578982e-01	3.300000e+00	
27	1.132400e+07	2.590961e-01	3.300000e+00	
28	1.137627e+07	2.602996e-01	3.300000e+00	
29	1.142878e+07	2.615088e-01	3.300000e+00	
30	1.148154e+07	2.627237e-01	3.300000e+00	
31	1.153453e+07	2.639443e-01	3.300000e+00	
32	1.158777e+07	2.651707e-01	3.300000e+00	
33	1.164126e+07	2.664028e-01	3.300000e+00	
34	1.169499e+07	2.676407e-01	3.300000e+00	
35	1.174898e+07	2.688844e-01	3.300000e+00	
36	1.180321e+07	2.701340e-01	3.300000e+00	
37	1.185769e+07	2.713895e-01	3.300000e+00	
38	1.191242e+07	2.726509e-01	3.300000e+00	
39	1.196741e+07	2.739183e-01	3.300000e+00	
40	1.202264e+07	2.751916e-01	3.300000e+00	
41	1.207814e+07	2.764709e-01	3.300000e+00	
42	1.213389e+07	2.777562e-01	3.300000e+00	
43	1.218990e+07	2.790476e-01	3.300000e+00	
44	1.224616e+07	2.803451e-01	3.300000e+00	
45	1.230269e+07	2.816488e-01	3.300000e+00	
46	1.235947e+07	2.829585e-01	3.300000e+00	
47	1.241652e+07	2.842745e-01	3.300000e+00	
48	1.247384e+07	2.855967e-01	3.300000e+00	
49	1.253141e+07	2.869251e-01	3.300000e+00	
50	1.258925e+07	2.882597e-01	3.300000e+00	
51	1.264736e+07	2.896007e-01	3.300000e+00	
52	1.270574e+07	2.909480e-01	3.300000e+00	
53	1.276439e+07	2.923017e-01	3.300000e+00	
54	1.282331e+07	2.936618e-01	3.300000e+00	

Index   frequency       vm(to_match)    vm(source)      
--------------------------------------------------------------------------------
55	1.288250e+07	2.950283e-01	3.300000e+00	
56	1.294196e+07	2.964013e-01	3.300000e+00	
57	1.300170e+07	2.977807e-01	3.300000e+00	
58	1.306171e+07	2.991667e-01	3.300000e+00	
59	1.312200e+07	3.005592e-01	3.300000e+00	
60	1.318257e+07	3.019584e-01	3.300000e+00	
61	1.324342e+07	3.033641e-01	3.300000e+00	
62	1.330454e+07	3.047765e-01	3.300000e+00	
63	1.336596e+07	3.061956e-01	3.300000e+00	
64	1.342765e+07	3.076214e-01	3.300000e+00	
65	1.348963e+07	3.090540e-01	3.300000e+00	
66	1.355189e+07	3.104934e-01	3.300000e+00	
67	1.361445e+07	3.119396e-01	3.300000e+00	
68	1.367729e+07	3.133926e-01	3.300000e+00	
69	1.374042e+07	3.148525e-01	3.300000e+00	
70	1.380384e+07	3.163194e-01	3.300000e+00	
71	1.386756e+07	3.177932e-01	3.300000e+00	
72	1.393157e+07	3.192740e-01	3.300000e+00	
73	1.399587e+07	3.207618e-01	3.300000e+00	
74	1.406048e+07	3.222567e-01	3.300000e+00	
75	1.412538e+07	3.237587e-01	3.300000e+00	
76	1.419058e+07	3.252678e-01	3.300000e+00	
77	1.425608e+07	3.267841e-01	3.300000e+00	
78	1.432188e+07	3.283076e-01	3.300000e+00	
79	1.438799e+07	3.298384e-01	3.300000e+00	
80	1.445440e+07	3.313764e-01	3.300000e+00	
81	1.452112e+07	3.329217e-01	3.300000e+00	
82	1.458814e+07	3.344744e-01	3.300000e+00	
83	1.465548e+07	3.360345e-01	3.300000e+00	
84	1.472313e+07	3.376020e-01	3.300000e+00	
85	1.479108e+07	3.391769e-01	3.300000e+00	
86	1.485936e+07	3.407594e-01	3.300000e+00	
87	1.492794e+07	3.423494e-01	3.300000e+00	
88	1.499685e+07	3.439470e-01	3.300000e+00	
89	1.506607e+07	3.455522e-01	3.300000e+00	
90	1.513561e+07	3.471651e-01	3.300000e+00	
91	1.520548e+07	3.487856e-01	3.300000e+00	
92	1.527566e+07	3.504139e-01	3.300000e+00	
93	1.534617e+07	3.520499e-01	3.300000e+00	
94	1.541700e+07	3.536938e-01	3.300000e+00	
95	1.548817e+07	3.553455e-01	3.300000e+00	
96	1.555966e+07	3.570051e-01	3.300000e+00	
97	1.563148e+07	3.586726e-01	3.300000e+00	
98	1.570363e+07	3.603481e-01	3.300000e+00	
99	1.577611e+07	3.620316e-01	3.300000e+00	
100	1.584893e+07	3.637231e-01	3.300000e+00	
101	1.592209e+07	3.654228e-01	3.300000e+00	
102	1.599558e+07	3.671305e-01	3.300000e+00	
103	1.606941e+07	3.688465e-01	3.300000e+00	
104	1.614359e+07	3.705706e-01	3.300000e+00	
105	1.621810e+07	3.723031e-01	3.300000e+00	
106	1.629296e+07	3.740438e-01	3.300000e+00	
107	1.636817e+07	3.757929e-01	3.300000e+00	
108	1.644372e+07	3.775503e-01	3.300000e+00	
109	1.651962e+07	3.793162e-01	3.300000e+00	
110	1.659587e+07	3.810905e-01	3.300000e+00	
111	1.667247e+07	3.828734e-01	3.300000e+00	
112	1.674943e+07	3.846648e-01	3.300000e+00	

Index   frequency       vm(to_match)    vm(source)      
--------------------------------------------------------------------------------
113	1.682674e+07	3.864649e-01	3.300000e+00	
114	1.690441e+07	3.882736e-01	3.300000e+00	
115	1.698244e+07	3.900909e-01	3.300000e+00	
116	1.706082e+07	3.919170e-01	3.300000e+00	
117	1.713957e+07	3.937519e-01	3.300000e+00	
118	1.721869e+07	3.955957e-01	3.300000e+00	
119	1.729816e+07	3.974482e-01	3.300000e+00	
120	1.737801e+07	3.993098e-01	3.300000e+00	
121	1.745822e+07	4.011802e-01	3.300000e+00	
122	1.753881e+07	4.030597e-01	3.300000e+00	
123	1.761976e+07	4.049483e-01	3.300000e+00	
124	1.770109e+07	4.068459e-01	3.300000e+00	
125	1.778279e+07	4.087527e-01	3.300000e+00	
126	1.786488e+07	4.106688e-01	3.300000e+00	
127	1.794734e+07	4.125940e-01	3.300000e+00	
128	1.803018e+07	4.145286e-01	3.300000e+00	
129	1.811340e+07	4.164725e-01	3.300000e+00	
130	1.819701e+07	4.184258e-01	3.300000e+00	
131	1.828100e+07	4.203885e-01	3.300000e+00	
132	1.836538e+07	4.223607e-01	3.300000e+00	
133	1.845015e+07	4.243425e-01	3.300000e+00	
134	1.853532e+07	4.263339e-01	3.300000e+00	
135	1.862087e+07	4.283349e-01	3.300000e+00	
136	1.870682e+07	4.303456e-01	3.300000e+00	
137	1.879317e+07	4.323661e-01	3.300000e+00	
138	1.887991e+07	4.343963e-01	3.300000e+00	
139	1.896706e+07	4.364364e-01	3.300000e+00	
140	1.905461e+07	4.384864e-01	3.300000e+00	
141	1.914256e+07	4.405464e-01	3.300000e+00	
142	1.923092e+07	4.426164e-01	3.300000e+00	
143	1.931968e+07	4.446964e-01	3.300000e+00	
144	1.940886e+07	4.467865e-01	3.300000e+00	
145	1.949845e+07	4.488868e-01	3.300000e+00	
146	1.958845e+07	4.509973e-01	3.300000e+00	
147	1.967886e+07	4.531181e-01	3.300000e+00	
148	1.976970e+07	4.552493e-01	3.300000e+00	
149	1.986095e+07	4.573908e-01	3.300000e+00	
150	1.995262e+07	4.595427e-01	3.300000e+00	
151	2.004472e+07	4.617051e-01	3.300000e+00	
152	2.013724e+07	4.638781e-01	3.300000e+00	
153	2.023019e+07	4.660617e-01	3.300000e+00	
154	2.032357e+07	4.682560e-01	3.300000e+00	
155	2.041738e+07	4.704610e-01	3.300000e+00	
156	2.051162e+07	4.726768e-01	3.300000e+00	
157	2.060630e+07	4.749034e-01	3.300000e+00	
158	2.070141e+07	4.771409e-01	3.300000e+00	
159	2.079697e+07	4.793893e-01	3.300000e+00	
160	2.089296e+07	4.816488e-01	3.300000e+00	
161	2.098940e+07	4.839194e-01	3.300000e+00	
162	2.108628e+07	4.862010e-01	3.300000e+00	
163	2.118361e+07	4.884939e-01	3.300000e+00	
164	2.128139e+07	4.907981e-01	3.300000e+00	
165	2.137962e+07	4.931135e-01	3.300000e+00	
166	2.147830e+07	4.954403e-01	3.300000e+00	
167	2.157744e+07	4.977786e-01	3.300000e+00	
168	2.167704e+07	5.001284e-01	3.300000e+00	
169	2.177710e+07	5.024897e-01	3.300000e+00	
170	2.187762e+07	5.048627e-01	3.300000e+00	

Index   frequency       vm(to_match)    vm(source)      
--------------------------------------------------------------------------------
171	2.197860e+07	5.072473e-01	3.300000e+00	
172	2.208005e+07	5.096437e-01	3.300000e+00	
173	2.218196e+07	5.120519e-01	3.300000e+00	
174	2.228435e+07	5.144720e-01	3.300000e+00	
175	2.238721e+07	5.169041e-01	3.300000e+00	
176	2.249055e+07	5.193482e-01	3.300000e+00	
177	2.259436e+07	5.218044e-01	3.300000e+00	
178	2.269865e+07	5.242727e-01	3.300000e+00	
179	2.280342e+07	5.267532e-01	3.300000e+00	
180	2.290868e+07	5.292460e-01	3.300000e+00	
181	2.301442e+07	5.317512e-01	3.300000e+00	
182	2.312065e+07	5.342688e-01	3.300000e+00	
183	2.322737e+07	5.367988e-01	3.300000e+00	
184	2.333458e+07	5.393415e-01	3.300000e+00	
185	2.344229e+07	5.418967e-01	3.300000e+00	
186	2.355049e+07	5.444647e-01	3.300000e+00	
187	2.365920e+07	5.470454e-01	3.300000e+00	
188	2.376840e+07	5.496390e-01	3.300000e+00	
189	2.387811e+07	5.522455e-01	3.300000e+00	
190	2.398833e+07	5.548650e-01	3.300000e+00	
191	2.409905e+07	5.574975e-01	3.300000e+00	
192	2.421029e+07	5.601432e-01	3.300000e+00	
193	2.432204e+07	5.628021e-01	3.300000e+00	
194	2.443431e+07	5.654742e-01	3.300000e+00	
195	2.454709e+07	5.681598e-01	3.300000e+00	
196	2.466039e+07	5.708587e-01	3.300000e+00	
197	2.477422e+07	5.735712e-01	3.300000e+00	
198	2.488857e+07	5.762972e-01	3.300000e+00	
199	2.500345e+07	5.790369e-01	3.300000e+00	
200	2.511886e+07	5.817904e-01	3.300000e+00	
201	2.523481e+07	5.845576e-01	3.300000e+00	
202	2.535129e+07	5.873388e-01	3.300000e+00	
203	2.546830e+07	5.901339e-01	3.300000e+00	
204	2.558586e+07	5.929431e-01	3.300000e+00	
205	2.570396e+07	5.957665e-01	3.300000e+00	
206	2.582260e+07	5.986040e-01	3.300000e+00	
207	2.594179e+07	6.014559e-01	3.300000e+00	
208	2.606154e+07	6.043221e-01	3.300000e+00	
209	2.618183e+07	6.072028e-01	3.300000e+00	
210	2.630268e+07	6.100981e-01	3.300000e+00	
211	2.642409e+07	6.130079e-01	3.300000e+00	
212	2.654606e+07	6.159325e-01	3.300000e+00	
213	2.666859e+07	6.188719e-01	3.300000e+00	
214	2.679168e+07	6.218262e-01	3.300000e+00	
215	2.691535e+07	6.247955e-01	3.300000e+00	
216	2.703958e+07	6.277798e-01	3.300000e+00	
217	2.716439e+07	6.307793e-01	3.300000e+00	
218	2.728978e+07	6.337940e-01	3.300000e+00	
219	2.741574e+07	6.368241e-01	3.300000e+00	
220	2.754229e+07	6.398695e-01	3.300000e+00	
221	2.766942e+07	6.429305e-01	3.300000e+00	
222	2.779713e+07	6.460071e-01	3.300000e+00	
223	2.792544e+07	6.490993e-01	3.300000e+00	
224	2.805434e+07	6.522074e-01	3.300000e+00	
225	2.818383e+07	6.553313e-01	3.300000e+00	
226	2.831392e+07	6.584712e-01	3.300000e+00	
227	2.844461e+07	6.616271e-01	3.300000e+00	
228	2.857591e+07	6.647992e-01	3.300000e+00	

Index   frequency       vm(to_match)    vm(source)      
--------------------------------------------------------------------------------
229	2.870781e+07	6.679876e-01	3.300000e+00	
230	2.884032e+07	6.711924e-01	3.300000e+00	
231	2.897344e+07	6.744135e-01	3.300000e+00	
232	2.910717e+07	6.776513e-01	3.300000e+00	
233	2.924152e+07	6.809056e-01	3.300000e+00	
234	2.937650e+07	6.841768e-01	3.300000e+00	
235	2.951209e+07	6.874647e-01	3.300000e+00	
236	2.964831e+07	6.907697e-01	3.300000e+00	
237	2.978516e+07	6.940916e-01	3.300000e+00	
238	2.992265e+07	6.974308e-01	3.300000e+00	
239	3.006076e+07	7.007871e-01	3.300000e+00	
240	3.019952e+07	7.041609e-01	3.300000e+00	
241	3.033891e+07	7.075521e-01	3.300000e+00	
242	3.047895e+07	7.109609e-01	3.300000e+00	
243	3.061963e+07	7.143874e-01	3.300000e+00	
244	3.076097e+07	7.178316e-01	3.300000e+00	
245	3.090295e+07	7.212938e-01	3.300000e+00	
246	3.104560e+07	7.247739e-01	3.300000e+00	
247	3.118890e+07	7.282722e-01	3.300000e+00	
248	3.133286e+07	7.317887e-01	3.300000e+00	
249	3.147748e+07	7.353235e-01	3.300000e+00	
250	3.162278e+07	7.388768e-01	3.300000e+00	
251	3.176874e+07	7.424486e-01	3.300000e+00	
252	3.191538e+07	7.460392e-01	3.300000e+00	
253	3.206269e+07	7.496485e-01	3.300000e+00	
254	3.221069e+07	7.532767e-01	3.300000e+00	
255	3.235937e+07	7.569239e-01	3.300000e+00	
256	3.250873e+07	7.605903e-01	3.300000e+00	
257	3.265878e+07	7.642760e-01	3.300000e+00	
258	3.280953e+07	7.679810e-01	3.300000e+00	
259	3.296097e+07	7.717056e-01	3.300000e+00	
260	3.311311e+07	7.754497e-01	3.300000e+00	
261	3.326596e+07	7.792137e-01	3.300000e+00	
262	3.341950e+07	7.829974e-01	3.300000e+00	
263	3.357376e+07	7.868012e-01	3.300000e+00	
264	3.372873e+07	7.906251e-01	3.300000e+00	
265	3.388442e+07	7.944693e-01	3.300000e+00	
266	3.404082e+07	7.983338e-01	3.300000e+00	
267	3.419794e+07	8.022188e-01	3.300000e+00	
268	3.435579e+07	8.061245e-01	3.300000e+00	
269	3.451437e+07	8.100509e-01	3.300000e+00	
270	3.467369e+07	8.139983e-01	3.300000e+00	
271	3.483373e+07	8.179666e-01	3.300000e+00	
272	3.499452e+07	8.219561e-01	3.300000e+00	
273	3.515604e+07	8.259669e-01	3.300000e+00	
274	3.531832e+07	8.299992e-01	3.300000e+00	
275	3.548134e+07	8.340530e-01	3.300000e+00	
276	3.564511e+07	8.381285e-01	3.300000e+00	
277	3.580964e+07	8.422259e-01	3.300000e+00	
278	3.597493e+07	8.463452e-01	3.300000e+00	
279	3.614099e+07	8.504867e-01	3.300000e+00	
280	3.630781e+07	8.546505e-01	3.300000e+00	
281	3.647539e+07	8.588366e-01	3.300000e+00	
282	3.664376e+07	8.630453e-01	3.300000e+00	
283	3.681290e+07	8.672768e-01	3.300000e+00	
284	3.698282e+07	8.715310e-01	3.300000e+00	
285	3.715352e+07	8.758083e-01	3.300000e+00	
286	3.732502e+07	8.801087e-01	3.300000e+00	

Index   frequency       vm(to_match)    vm(source)      
--------------------------------------------------------------------------------
287	3.749730e+07	8.844324e-01	3.300000e+00	
288	3.767038e+07	8.887796e-01	3.300000e+00	
289	3.784426e+07	8.931504e-01	3.300000e+00	
290	3.801894e+07	8.975449e-01	3.300000e+00	
291	3.819443e+07	9.019633e-01	3.300000e+00	
292	3.837072e+07	9.064058e-01	3.300000e+00	
293	3.854784e+07	9.108726e-01	3.300000e+00	
294	3.872576e+07	9.153637e-01	3.300000e+00	
295	3.890451e+07	9.198794e-01	3.300000e+00	
296	3.908409e+07	9.244197e-01	3.300000e+00	
297	3.926449e+07	9.289850e-01	3.300000e+00	
298	3.944573e+07	9.335752e-01	3.300000e+00	
299	3.962780e+07	9.381907e-01	3.300000e+00	
300	3.981072e+07	9.428315e-01	3.300000e+00	
301	3.999447e+07	9.474979e-01	3.300000e+00	
302	4.017908e+07	9.521900e-01	3.300000e+00	
303	4.036454e+07	9.569079e-01	3.300000e+00	
304	4.055085e+07	9.616519e-01	3.300000e+00	
305	4.073803e+07	9.664221e-01	3.300000e+00	
306	4.092607e+07	9.712187e-01	3.300000e+00	
307	4.111497e+07	9.760419e-01	3.300000e+00	
308	4.130475e+07	9.808918e-01	3.300000e+00	
309	4.149540e+07	9.857686e-01	3.300000e+00	
310	4.168694e+07	9.906726e-01	3.300000e+00	
311	4.187936e+07	9.956038e-01	3.300000e+00	
312	4.207266e+07	1.000563e+00	3.300000e+00	
313	4.226686e+07	1.005549e+00	3.300000e+00	
314	4.246196e+07	1.010563e+00	3.300000e+00	
315	4.265795e+07	1.015605e+00	3.300000e+00	
316	4.285485e+07	1.020676e+00	3.300000e+00	
317	4.305266e+07	1.025775e+00	3.300000e+00	
318	4.325138e+07	1.030902e+00	3.300000e+00	
319	4.345102e+07	1.036058e+00	3.300000e+00	
320	4.365158e+07	1.041243e+00	3.300000e+00	
321	4.385307e+07	1.046458e+00	3.300000e+00	
322	4.405549e+07	1.051702e+00	3.300000e+00	
323	4.425884e+07	1.056975e+00	3.300000e+00	
324	4.446313e+07	1.062278e+00	3.300000e+00	
325	4.466836e+07	1.067611e+00	3.300000e+00	
326	4.487454e+07	1.072974e+00	3.300000e+00	
327	4.508167e+07	1.078368e+00	3.300000e+00	
328	4.528976e+07	1.083792e+00	3.300000e+00	
329	4.549881e+07	1.089247e+00	3.300000e+00	
330	4.570882e+07	1.094733e+00	3.300000e+00	
331	4.591980e+07	1.100251e+00	3.300000e+00	
332	4.613176e+07	1.105799e+00	3.300000e+00	
333	4.634469e+07	1.111380e+00	3.300000e+00	
334	4.655861e+07	1.116992e+00	3.300000e+00	
335	4.677351e+07	1.122636e+00	3.300000e+00	
336	4.698941e+07	1.128312e+00	3.300000e+00	
337	4.720630e+07	1.134022e+00	3.300000e+00	
338	4.742420e+07	1.139763e+00	3.300000e+00	
339	4.764310e+07	1.145538e+00	3.300000e+00	
340	4.786301e+07	1.151346e+00	3.300000e+00	
341	4.808393e+07	1.157187e+00	3.300000e+00	
342	4.830588e+07	1.163062e+00	3.300000e+00	
343	4.852885e+07	1.168971e+00	3.300000e+00	
344	4.875285e+07	1.174914e+00	3.300000e+00	

Index   frequency       vm(to_match)    vm(source)      
--------------------------------------------------------------------------------
345	4.897788e+07	1.180891e+00	3.300000e+00	
346	4.920395e+07	1.186903e+00	3.300000e+00	
347	4.943107e+07	1.192950e+00	3.300000e+00	
348	4.965923e+07	1.199031e+00	3.300000e+00	
349	4.988845e+07	1.205148e+00	3.300000e+00	
350	5.011872e+07	1.211300e+00	3.300000e+00	
351	5.035006e+07	1.217488e+00	3.300000e+00	
352	5.058247e+07	1.223712e+00	3.300000e+00	
353	5.081594e+07	1.229973e+00	3.300000e+00	
354	5.105050e+07	1.236269e+00	3.300000e+00	
355	5.128614e+07	1.242603e+00	3.300000e+00	
356	5.152286e+07	1.248973e+00	3.300000e+00	
357	5.176068e+07	1.255381e+00	3.300000e+00	
358	5.199960e+07	1.261826e+00	3.300000e+00	
359	5.223962e+07	1.268309e+00	3.300000e+00	
360	5.248075e+07	1.274830e+00	3.300000e+00	
361	5.272299e+07	1.281389e+00	3.300000e+00	
362	5.296634e+07	1.287986e+00	3.300000e+00	
363	5.321083e+07	1.294622e+00	3.300000e+00	
364	5.345644e+07	1.301297e+00	3.300000e+00	
365	5.370318e+07	1.308012e+00	3.300000e+00	
366	5.395106e+07	1.314765e+00	3.300000e+00	
367	5.420009e+07	1.321559e+00	3.300000e+00	
368	5.445027e+07	1.328393e+00	3.300000e+00	
369	5.470160e+07	1.335267e+00	3.300000e+00	
370	5.495409e+07	1.342181e+00	3.300000e+00	
371	5.520774e+07	1.349136e+00	3.300000e+00	
372	5.546257e+07	1.356133e+00	3.300000e+00	
373	5.571857e+07	1.363170e+00	3.300000e+00	
374	5.597576e+07	1.370249e+00	3.300000e+00	
375	5.623413e+07	1.377371e+00	3.300000e+00	
376	5.649370e+07	1.384534e+00	3.300000e+00	
377	5.675446e+07	1.391739e+00	3.300000e+00	
378	5.701643e+07	1.398988e+00	3.300000e+00	
379	5.727960e+07	1.406279e+00	3.300000e+00	
380	5.754399e+07	1.413613e+00	3.300000e+00	
381	5.780960e+07	1.420991e+00	3.300000e+00	
382	5.807644e+07	1.428413e+00	3.300000e+00	
383	5.834451e+07	1.435879e+00	3.300000e+00	
384	5.861382e+07	1.443389e+00	3.300000e+00	
385	5.888437e+07	1.450943e+00	3.300000e+00	
386	5.915616e+07	1.458543e+00	3.300000e+00	
387	5.942922e+07	1.466187e+00	3.300000e+00	
388	5.970353e+07	1.473877e+00	3.300000e+00	
389	5.997911e+07	1.481613e+00	3.300000e+00	
390	6.025596e+07	1.489394e+00	3.300000e+00	
391	6.053409e+07	1.497222e+00	3.300000e+00	
392	6.081350e+07	1.505096e+00	3.300000e+00	
393	6.109420e+07	1.513016e+00	3.300000e+00	
394	6.137620e+07	1.520984e+00	3.300000e+00	
395	6.165950e+07	1.528999e+00	3.300000e+00	
396	6.194411e+07	1.537062e+00	3.300000e+00	
397	6.223003e+07	1.545172e+00	3.300000e+00	
398	6.251727e+07	1.553330e+00	3.300000e+00	
399	6.280584e+07	1.561537e+00	3.300000e+00	
400	6.309573e+07	1.569792e+00	3.300000e+00	
401	6.338697e+07	1.578096e+00	3.300000e+00	
402	6.367955e+07	1.586449e+00	3.300000e+00	

Index   frequency       vm(to_match)    vm(source)      
--------------------------------------------------------------------------------
403	6.397348e+07	1.594851e+00	3.300000e+00	
404	6.426877e+07	1.603303e+00	3.300000e+00	
405	6.456542e+07	1.611805e+00	3.300000e+00	
406	6.486344e+07	1.620356e+00	3.300000e+00	
407	6.516284e+07	1.628958e+00	3.300000e+00	
408	6.546362e+07	1.637611e+00	3.300000e+00	
409	6.576578e+07	1.646314e+00	3.300000e+00	
410	6.606934e+07	1.655068e+00	3.300000e+00	
411	6.637431e+07	1.663874e+00	3.300000e+00	
412	6.668068e+07	1.672731e+00	3.300000e+00	
413	6.698846e+07	1.681640e+00	3.300000e+00	
414	6.729767e+07	1.690600e+00	3.300000e+00	
415	6.760830e+07	1.699613e+00	3.300000e+00	
416	6.792036e+07	1.708678e+00	3.300000e+00	
417	6.823387e+07	1.717795e+00	3.300000e+00	
418	6.854882e+07	1.726965e+00	3.300000e+00	
419	6.886523e+07	1.736189e+00	3.300000e+00	
420	6.918310e+07	1.745465e+00	3.300000e+00	
421	6.950243e+07	1.754794e+00	3.300000e+00	
422	6.982324e+07	1.764177e+00	3.300000e+00	
423	7.014553e+07	1.773613e+00	3.300000e+00	
424	7.046931e+07	1.783103e+00	3.300000e+00	
425	7.079458e+07	1.792647e+00	3.300000e+00	
426	7.112135e+07	1.802245e+00	3.300000e+00	
427	7.144963e+07	1.811897e+00	3.300000e+00	
428	7.177943e+07	1.821603e+00	3.300000e+00	
429	7.211075e+07	1.831364e+00	3.300000e+00	
430	7.244360e+07	1.841179e+00	3.300000e+00	
431	7.277798e+07	1.851049e+00	3.300000e+00	
432	7.311391e+07	1.860973e+00	3.300000e+00	
433	7.345139e+07	1.870952e+00	3.300000e+00	
434	7.379042e+07	1.880986e+00	3.300000e+00	
435	7.413102e+07	1.891074e+00	3.300000e+00	
436	7.447320e+07	1.901218e+00	3.300000e+00	
437	7.481695e+07	1.911416e+00	3.300000e+00	
438	7.516229e+07	1.921669e+00	3.300000e+00	
439	7.550922e+07	1.931977e+00	3.300000e+00	
440	7.585776e+07	1.942340e+00	3.300000e+00	
441	7.620790e+07	1.952757e+00	3.300000e+00	
442	7.655966e+07	1.963230e+00	3.300000e+00	
443	7.691304e+07	1.973757e+00	3.300000e+00	
444	7.726806e+07	1.984338e+00	3.300000e+00	
445	7.762471e+07	1.994974e+00	3.300000e+00	
446	7.798301e+07	2.005664e+00	3.300000e+00	
447	7.834296e+07	2.016409e+00	3.300000e+00	
448	7.870458e+07	2.027207e+00	3.300000e+00	
449	7.906786e+07	2.038059e+00	3.300000e+00	
450	7.943282e+07	2.048965e+00	3.300000e+00	
451	7.979947e+07	2.059924e+00	3.300000e+00	
452	8.016781e+07	2.070936e+00	3.300000e+00	
453	8.053784e+07	2.082002e+00	3.300000e+00	
454	8.090959e+07	2.093119e+00	3.300000e+00	
455	8.128305e+07	2.104289e+00	3.300000e+00	
456	8.165824e+07	2.115511e+00	3.300000e+00	
457	8.203515e+07	2.126784e+00	3.300000e+00	
458	8.241381e+07	2.138108e+00	3.300000e+00	
459	8.279422e+07	2.149483e+00	3.300000e+00	
460	8.317638e+07	2.160907e+00	3.300000e+00	

Index   frequency       vm(to_match)    vm(source)      
--------------------------------------------------------------------------------
461	8.356030e+07	2.172382e+00	3.300000e+00	
462	8.394600e+07	2.183905e+00	3.300000e+00	
463	8.433348e+07	2.195477e+00	3.300000e+00	
464	8.472274e+07	2.207097e+00	3.300000e+00	
465	8.511380e+07	2.218764e+00	3.300000e+00	
466	8.550667e+07	2.230478e+00	3.300000e+00	
467	8.590135e+07	2.242238e+00	3.300000e+00	
468	8.629785e+07	2.254043e+00	3.300000e+00	
469	8.669619e+07	2.265892e+00	3.300000e+00	
470	8.709636e+07	2.277784e+00	3.300000e+00	
471	8.749838e+07	2.289720e+00	3.300000e+00	
472	8.790225e+07	2.301697e+00	3.300000e+00	
473	8.830799e+07	2.313714e+00	3.300000e+00	
474	8.871560e+07	2.325772e+00	3.300000e+00	
475	8.912509e+07	2.337868e+00	3.300000e+00	
476	8.953648e+07	2.350002e+00	3.300000e+00	
477	8.994976e+07	2.362172e+00	3.300000e+00	
478	9.036495e+07	2.374378e+00	3.300000e+00	
479	9.078205e+07	2.386617e+00	3.300000e+00	
480	9.120108e+07	2.398889e+00	3.300000e+00	
481	9.162205e+07	2.411193e+00	3.300000e+00	
482	9.204496e+07	2.423527e+00	3.300000e+00	
483	9.246982e+07	2.435889e+00	3.300000e+00	
484	9.289664e+07	2.448278e+00	3.300000e+00	
485	9.332543e+07	2.460692e+00	3.300000e+00	
486	9.375620e+07	2.473130e+00	3.300000e+00	
487	9.418896e+07	2.485590e+00	3.300000e+00	
488	9.462372e+07	2.498071e+00	3.300000e+00	
489	9.506048e+07	2.510570e+00	3.300000e+00	
490	9.549926e+07	2.523085e+00	3.300000e+00	
491	9.594006e+07	2.535615e+00	3.300000e+00	
492	9.638290e+07	2.548158e+00	3.300000e+00	
493	9.682779e+07	2.560711e+00	3.300000e+00	
494	9.727472e+07	2.573273e+00	3.300000e+00	
495	9.772372e+07	2.585840e+00	3.300000e+00	
496	9.817479e+07	2.598412e+00	3.300000e+00	
497	9.862795e+07	2.610985e+00	3.300000e+00	
498	9.908319e+07	2.623557e+00	3.300000e+00	
499	9.954054e+07	2.636125e+00	3.300000e+00	
500	1.000000e+08	2.648688e+00	3.300000e+00	
501	1.004616e+08	2.661242e+00	3.300000e+00	
502	1.009253e+08	2.673784e+00	3.300000e+00	
503	1.013911e+08	2.686312e+00	3.300000e+00	
504	1.018591e+08	2.698823e+00	3.300000e+00	
505	1.023293e+08	2.711314e+00	3.300000e+00	
506	1.028016e+08	2.723781e+00	3.300000e+00	
507	1.032761e+08	2.736223e+00	3.300000e+00	
508	1.037528e+08	2.748635e+00	3.300000e+00	
509	1.042317e+08	2.761014e+00	3.300000e+00	
510	1.047129e+08	2.773357e+00	3.300000e+00	
511	1.051962e+08	2.785661e+00	3.300000e+00	
512	1.056818e+08	2.797922e+00	3.300000e+00	
513	1.061696e+08	2.810137e+00	3.300000e+00	
514	1.066596e+08	2.822301e+00	3.300000e+00	
515	1.071519e+08	2.834411e+00	3.300000e+00	
516	1.076465e+08	2.846464e+00	3.300000e+00	
517	1.081434e+08	2.858455e+00	3.300000e+00	
518	1.086426e+08	2.870381e+00	3.300000e+00	

Index   frequency       vm(to_match)    vm(source)      
--------------------------------------------------------------------------------
519	1.091440e+08	2.882238e+00	3.300000e+00	
520	1.096478e+08	2.894020e+00	3.300000e+00	
521	1.101539e+08	2.905726e+00	3.300000e+00	
522	1.106624e+08	2.917349e+00	3.300000e+00	
523	1.111732e+08	2.928887e+00	3.300000e+00	
524	1.116863e+08	2.940334e+00	3.300000e+00	
525	1.122018e+08	2.951687e+00	3.300000e+00	
526	1.127197e+08	2.962940e+00	3.300000e+00	
527	1.132400e+08	2.974090e+00	3.300000e+00	
528	1.137627e+08	2.985131e+00	3.300000e+00	
529	1.142878e+08	2.996060e+00	3.300000e+00	
530	1.148154e+08	3.006872e+00	3.300000e+00	
531	1.153453e+08	3.017561e+00	3.300000e+00	
532	1.158777e+08	3.028124e+00	3.300000e+00	
533	1.164126e+08	3.038556e+00	3.300000e+00	
534	1.169499e+08	3.048851e+00	3.300000e+00	
535	1.174898e+08	3.059006e+00	3.300000e+00	
536	1.180321e+08	3.069015e+00	3.300000e+00	
537	1.185769e+08	3.078874e+00	3.300000e+00	
538	1.191242e+08	3.088578e+00	3.300000e+00	
539	1.196741e+08	3.098121e+00	3.300000e+00	
540	1.202264e+08	3.107500e+00	3.300000e+00	
541	1.207814e+08	3.116710e+00	3.300000e+00	
542	1.213389e+08	3.125745e+00	3.300000e+00	
543	1.218990e+08	3.134601e+00	3.300000e+00	
544	1.224616e+08	3.143273e+00	3.300000e+00	
545	1.230269e+08	3.151757e+00	3.300000e+00	
546	1.235947e+08	3.160048e+00	3.300000e+00	
547	1.241652e+08	3.168141e+00	3.300000e+00	
548	1.247384e+08	3.176032e+00	3.300000e+00	
549	1.253141e+08	3.183716e+00	3.300000e+00	
550	1.258925e+08	3.191189e+00	3.300000e+00	
551	1.264736e+08	3.198447e+00	3.300000e+00	
552	1.270574e+08	3.205484e+00	3.300000e+00	
553	1.276439e+08	3.212298e+00	3.300000e+00	
554	1.282331e+08	3.218884e+00	3.300000e+00	
555	1.288250e+08	3.225237e+00	3.300000e+00	
556	1.294196e+08	3.231355e+00	3.300000e+00	
557	1.300170e+08	3.237232e+00	3.300000e+00	
558	1.306171e+08	3.242866e+00	3.300000e+00	
559	1.312200e+08	3.248253e+00	3.300000e+00	
560	1.318257e+08	3.253390e+00	3.300000e+00	
561	1.324342e+08	3.258272e+00	3.300000e+00	
562	1.330454e+08	3.262898e+00	3.300000e+00	
563	1.336596e+08	3.267263e+00	3.300000e+00	
564	1.342765e+08	3.271366e+00	3.300000e+00	
565	1.348963e+08	3.275203e+00	3.300000e+00	
566	1.355189e+08	3.278772e+00	3.300000e+00	
567	1.361445e+08	3.282070e+00	3.300000e+00	
568	1.367729e+08	3.285096e+00	3.300000e+00	
569	1.374042e+08	3.287847e+00	3.300000e+00	
570	1.380384e+08	3.290321e+00	3.300000e+00	
571	1.386756e+08	3.292517e+00	3.300000e+00	
572	1.393157e+08	3.294432e+00	3.300000e+00	
573	1.399587e+08	3.296067e+00	3.300000e+00	
574	1.406048e+08	3.297420e+00	3.300000e+00	
575	1.412538e+08	3.298489e+00	3.300000e+00	
576	1.419058e+08	3.299274e+00	3.300000e+00	

Index   frequency       vm(to_match)    vm(source)      
--------------------------------------------------------------------------------
577	1.425608e+08	3.299775e+00	3.300000e+00	
578	1.432188e+08	3.299991e+00	3.300000e+00	
579	1.438799e+08	3.299921e+00	3.300000e+00	
580	1.445440e+08	3.299567e+00	3.300000e+00	
581	1.452112e+08	3.298928e+00	3.300000e+00	
582	1.458814e+08	3.298005e+00	3.300000e+00	
583	1.465548e+08	3.296799e+00	3.300000e+00	
584	1.472313e+08	3.295309e+00	3.300000e+00	
585	1.479108e+08	3.293538e+00	3.300000e+00	
586	1.485936e+08	3.291486e+00	3.300000e+00	
587	1.492794e+08	3.289155e+00	3.300000e+00	
588	1.499685e+08	3.286546e+00	3.300000e+00	
589	1.506607e+08	3.283662e+00	3.300000e+00	
590	1.513561e+08	3.280504e+00	3.300000e+00	
591	1.520548e+08	3.277074e+00	3.300000e+00	
592	1.527566e+08	3.273374e+00	3.300000e+00	
593	1.534617e+08	3.269408e+00	3.300000e+00	
594	1.541700e+08	3.265178e+00	3.300000e+00	
595	1.548817e+08	3.260686e+00	3.300000e+00	
596	1.555966e+08	3.255935e+00	3.300000e+00	
597	1.563148e+08	3.250929e+00	3.300000e+00	
598	1.570363e+08	3.245670e+00	3.300000e+00	
599	1.577611e+08	3.240163e+00	3.300000e+00	
600	1.584893e+08	3.234410e+00	3.300000e+00	
601	1.592209e+08	3.228416e+00	3.300000e+00	
602	1.599558e+08	3.222184e+00	3.300000e+00	
603	1.606941e+08	3.215717e+00	3.300000e+00	
604	1.614359e+08	3.209020e+00	3.300000e+00	
605	1.621810e+08	3.202097e+00	3.300000e+00	
606	1.629296e+08	3.194952e+00	3.300000e+00	
607	1.636817e+08	3.187590e+00	3.300000e+00	
608	1.644372e+08	3.180014e+00	3.300000e+00	
609	1.651962e+08	3.172229e+00	3.300000e+00	
610	1.659587e+08	3.164239e+00	3.300000e+00	
611	1.667247e+08	3.156050e+00	3.300000e+00	
612	1.674943e+08	3.147664e+00	3.300000e+00	
613	1.682674e+08	3.139089e+00	3.300000e+00	
614	1.690441e+08	3.130326e+00	3.300000e+00	
615	1.698244e+08	3.121383e+00	3.300000e+00	
616	1.706082e+08	3.112263e+00	3.300000e+00	
617	1.713957e+08	3.102970e+00	3.300000e+00	
618	1.721869e+08	3.093511e+00	3.300000e+00	
619	1.729816e+08	3.083889e+00	3.300000e+00	
620	1.737801e+08	3.074109e+00	3.300000e+00	
621	1.745822e+08	3.064177e+00	3.300000e+00	
622	1.753881e+08	3.054097e+00	3.300000e+00	
623	1.761976e+08	3.043873e+00	3.300000e+00	
624	1.770109e+08	3.033511e+00	3.300000e+00	
625	1.778279e+08	3.023015e+00	3.300000e+00	
626	1.786488e+08	3.012390e+00	3.300000e+00	
627	1.794734e+08	3.001640e+00	3.300000e+00	
628	1.803018e+08	2.990771e+00	3.300000e+00	
629	1.811340e+08	2.979787e+00	3.300000e+00	
630	1.819701e+08	2.968693e+00	3.300000e+00	
631	1.828100e+08	2.957492e+00	3.300000e+00	
632	1.836538e+08	2.946190e+00	3.300000e+00	
633	1.845015e+08	2.934791e+00	3.300000e+00	
634	1.853532e+08	2.923300e+00	3.300000e+00	

Index   frequency       vm(to_match)    vm(source)      
--------------------------------------------------------------------------------
635	1.862087e+08	2.911720e+00	3.300000e+00	
636	1.870682e+08	2.900056e+00	3.300000e+00	
637	1.879317e+08	2.888313e+00	3.300000e+00	
638	1.887991e+08	2.876493e+00	3.300000e+00	
639	1.896706e+08	2.864603e+00	3.300000e+00	
640	1.905461e+08	2.852645e+00	3.300000e+00	
641	1.914256e+08	2.840623e+00	3.300000e+00	
642	1.923092e+08	2.828542e+00	3.300000e+00	
643	1.931968e+08	2.816405e+00	3.300000e+00	
644	1.940886e+08	2.804216e+00	3.300000e+00	
645	1.949845e+08	2.791978e+00	3.300000e+00	
646	1.958845e+08	2.779696e+00	3.300000e+00	
647	1.967886e+08	2.767373e+00	3.300000e+00	
648	1.976970e+08	2.755012e+00	3.300000e+00	
649	1.986095e+08	2.742616e+00	3.300000e+00	
650	1.995262e+08	2.730189e+00	3.300000e+00	
651	2.004472e+08	2.717735e+00	3.300000e+00	
652	2.013724e+08	2.705256e+00	3.300000e+00	
653	2.023019e+08	2.692755e+00	3.300000e+00	
654	2.032357e+08	2.680235e+00	3.300000e+00	
655	2.041738e+08	2.667700e+00	3.300000e+00	
656	2.051162e+08	2.655152e+00	3.300000e+00	
657	2.060630e+08	2.642593e+00	3.300000e+00	
658	2.070141e+08	2.630028e+00	3.300000e+00	
659	2.079697e+08	2.617457e+00	3.300000e+00	
660	2.089296e+08	2.604884e+00	3.300000e+00	
661	2.098940e+08	2.592312e+00	3.300000e+00	
662	2.108628e+08	2.579742e+00	3.300000e+00	
663	2.118361e+08	2.567177e+00	3.300000e+00	
664	2.128139e+08	2.554619e+00	3.300000e+00	
665	2.137962e+08	2.542070e+00	3.300000e+00	
666	2.147830e+08	2.529534e+00	3.300000e+00	
667	2.157744e+08	2.517010e+00	3.300000e+00	
668	2.167704e+08	2.504503e+00	3.300000e+00	
669	2.177710e+08	2.492013e+00	3.300000e+00	
670	2.187762e+08	2.479542e+00	3.300000e+00	
671	2.197860e+08	2.467092e+00	3.300000e+00	
672	2.208005e+08	2.454665e+00	3.300000e+00	
673	2.218196e+08	2.442263e+00	3.300000e+00	
674	2.228435e+08	2.429887e+00	3.300000e+00	
675	2.238721e+08	2.417538e+00	3.300000e+00	
676	2.249055e+08	2.405219e+00	3.300000e+00	
677	2.259436e+08	2.392931e+00	3.300000e+00	
678	2.269865e+08	2.380674e+00	3.300000e+00	
679	2.280342e+08	2.368451e+00	3.300000e+00	
680	2.290868e+08	2.356262e+00	3.300000e+00	
681	2.301442e+08	2.344110e+00	3.300000e+00	
682	2.312065e+08	2.331994e+00	3.300000e+00	
683	2.322737e+08	2.319916e+00	3.300000e+00	
684	2.333458e+08	2.307878e+00	3.300000e+00	
685	2.344229e+08	2.295880e+00	3.300000e+00	
686	2.355049e+08	2.283923e+00	3.300000e+00	
687	2.365920e+08	2.272008e+00	3.300000e+00	
688	2.376840e+08	2.260137e+00	3.300000e+00	
689	2.387811e+08	2.248309e+00	3.300000e+00	
690	2.398833e+08	2.236526e+00	3.300000e+00	
691	2.409905e+08	2.224789e+00	3.300000e+00	
692	2.421029e+08	2.213097e+00	3.300000e+00	

Index   frequency       vm(to_match)    vm(source)      
--------------------------------------------------------------------------------
693	2.432204e+08	2.201453e+00	3.300000e+00	
694	2.443431e+08	2.189856e+00	3.300000e+00	
695	2.454709e+08	2.178308e+00	3.300000e+00	
696	2.466039e+08	2.166808e+00	3.300000e+00	
697	2.477422e+08	2.155358e+00	3.300000e+00	
698	2.488857e+08	2.143957e+00	3.300000e+00	
699	2.500345e+08	2.132607e+00	3.300000e+00	
700	2.511886e+08	2.121307e+00	3.300000e+00	
701	2.523481e+08	2.110059e+00	3.300000e+00	
702	2.535129e+08	2.098863e+00	3.300000e+00	
703	2.546830e+08	2.087718e+00	3.300000e+00	
704	2.558586e+08	2.076626e+00	3.300000e+00	
705	2.570396e+08	2.065586e+00	3.300000e+00	
706	2.582260e+08	2.054600e+00	3.300000e+00	
707	2.594179e+08	2.043667e+00	3.300000e+00	
708	2.606154e+08	2.032787e+00	3.300000e+00	
709	2.618183e+08	2.021961e+00	3.300000e+00	
710	2.630268e+08	2.011188e+00	3.300000e+00	
711	2.642409e+08	2.000470e+00	3.300000e+00	
712	2.654606e+08	1.989806e+00	3.300000e+00	
713	2.666859e+08	1.979197e+00	3.300000e+00	
714	2.679168e+08	1.968642e+00	3.300000e+00	
715	2.691535e+08	1.958142e+00	3.300000e+00	
716	2.703958e+08	1.947696e+00	3.300000e+00	
717	2.716439e+08	1.937305e+00	3.300000e+00	
718	2.728978e+08	1.926969e+00	3.300000e+00	
719	2.741574e+08	1.916687e+00	3.300000e+00	
720	2.754229e+08	1.906461e+00	3.300000e+00	
721	2.766942e+08	1.896289e+00	3.300000e+00	
722	2.779713e+08	1.886172e+00	3.300000e+00	
723	2.792544e+08	1.876110e+00	3.300000e+00	
724	2.805434e+08	1.866103e+00	3.300000e+00	
725	2.818383e+08	1.856151e+00	3.300000e+00	
726	2.831392e+08	1.846253e+00	3.300000e+00	
727	2.844461e+08	1.836410e+00	3.300000e+00	
728	2.857591e+08	1.826621e+00	3.300000e+00	
729	2.870781e+08	1.816887e+00	3.300000e+00	
730	2.884032e+08	1.807207e+00	3.300000e+00	
731	2.897344e+08	1.797581e+00	3.300000e+00	
732	2.910717e+08	1.788009e+00	3.300000e+00	
733	2.924152e+08	1.778492e+00	3.300000e+00	
734	2.937650e+08	1.769028e+00	3.300000e+00	
735	2.951209e+08	1.759617e+00	3.300000e+00	
736	2.964831e+08	1.750260e+00	3.300000e+00	
737	2.978516e+08	1.740957e+00	3.300000e+00	
738	2.992265e+08	1.731707e+00	3.300000e+00	
739	3.006076e+08	1.722509e+00	3.300000e+00	
740	3.019952e+08	1.713365e+00	3.300000e+00	
741	3.033891e+08	1.704273e+00	3.300000e+00	
742	3.047895e+08	1.695233e+00	3.300000e+00	
743	3.061963e+08	1.686246e+00	3.300000e+00	
744	3.076097e+08	1.677311e+00	3.300000e+00	
745	3.090295e+08	1.668427e+00	3.300000e+00	
746	3.104560e+08	1.659595e+00	3.300000e+00	
747	3.118890e+08	1.650814e+00	3.300000e+00	
748	3.133286e+08	1.642085e+00	3.300000e+00	
749	3.147748e+08	1.633406e+00	3.300000e+00	
750	3.162278e+08	1.624778e+00	3.300000e+00	

Index   frequency       vm(to_match)    vm(source)      
--------------------------------------------------------------------------------
751	3.176874e+08	1.616200e+00	3.300000e+00	
752	3.191538e+08	1.607673e+00	3.300000e+00	
753	3.206269e+08	1.599196e+00	3.300000e+00	
754	3.221069e+08	1.590768e+00	3.300000e+00	
755	3.235937e+08	1.582389e+00	3.300000e+00	
756	3.250873e+08	1.574060e+00	3.300000e+00	
757	3.265878e+08	1.565780e+00	3.300000e+00	
758	3.280953e+08	1.557549e+00	3.300000e+00	
759	3.296097e+08	1.549365e+00	3.300000e+00	
760	3.311311e+08	1.541231e+00	3.300000e+00	
761	3.326596e+08	1.533144e+00	3.300000e+00	
762	3.341950e+08	1.525104e+00	3.300000e+00	
763	3.357376e+08	1.517112e+00	3.300000e+00	
764	3.372873e+08	1.509167e+00	3.300000e+00	
765	3.388442e+08	1.501269e+00	3.300000e+00	
766	3.404082e+08	1.493418e+00	3.300000e+00	
767	3.419794e+08	1.485613e+00	3.300000e+00	
768	3.435579e+08	1.477853e+00	3.300000e+00	
769	3.451437e+08	1.470140e+00	3.300000e+00	
770	3.467369e+08	1.462472e+00	3.300000e+00	
771	3.483373e+08	1.454850e+00	3.300000e+00	
772	3.499452e+08	1.447272e+00	3.300000e+00	
773	3.515604e+08	1.439739e+00	3.300000e+00	
774	3.531832e+08	1.432251e+00	3.300000e+00	
775	3.548134e+08	1.424806e+00	3.300000e+00	
776	3.564511e+08	1.417406e+00	3.300000e+00	
777	3.580964e+08	1.410049e+00	3.300000e+00	
778	3.597493e+08	1.402736e+00	3.300000e+00	
779	3.614099e+08	1.395465e+00	3.300000e+00	
780	3.630781e+08	1.388238e+00	3.300000e+00	
781	3.647539e+08	1.381053e+00	3.300000e+00	
782	3.664376e+08	1.373910e+00	3.300000e+00	
783	3.681290e+08	1.366809e+00	3.300000e+00	
784	3.698282e+08	1.359750e+00	3.300000e+00	
785	3.715352e+08	1.352733e+00	3.300000e+00	
786	3.732502e+08	1.345756e+00	3.300000e+00	
787	3.749730e+08	1.338821e+00	3.300000e+00	
788	3.767038e+08	1.331926e+00	3.300000e+00	
789	3.784426e+08	1.325072e+00	3.300000e+00	
790	3.801894e+08	1.318258e+00	3.300000e+00	
791	3.819443e+08	1.311483e+00	3.300000e+00	
792	3.837072e+08	1.304749e+00	3.300000e+00	
793	3.854784e+08	1.298053e+00	3.300000e+00	
794	3.872576e+08	1.291397e+00	3.300000e+00	
795	3.890451e+08	1.284780e+00	3.300000e+00	
796	3.908409e+08	1.278201e+00	3.300000e+00	
797	3.926449e+08	1.271661e+00	3.300000e+00	
798	3.944573e+08	1.265158e+00	3.300000e+00	
799	3.962780e+08	1.258694e+00	3.300000e+00	
800	3.981072e+08	1.252267e+00	3.300000e+00	
801	3.999447e+08	1.245878e+00	3.300000e+00	
802	4.017908e+08	1.239525e+00	3.300000e+00	
803	4.036454e+08	1.233210e+00	3.300000e+00	
804	4.055085e+08	1.226931e+00	3.300000e+00	
805	4.073803e+08	1.220688e+00	3.300000e+00	
806	4.092607e+08	1.214481e+00	3.300000e+00	
807	4.111497e+08	1.208311e+00	3.300000e+00	
808	4.130475e+08	1.202176e+00	3.300000e+00	

Index   frequency       vm(to_match)    vm(source)      
--------------------------------------------------------------------------------
809	4.149540e+08	1.196076e+00	3.300000e+00	
810	4.168694e+08	1.190011e+00	3.300000e+00	
811	4.187936e+08	1.183982e+00	3.300000e+00	
812	4.207266e+08	1.177987e+00	3.300000e+00	
813	4.226686e+08	1.172026e+00	3.300000e+00	
814	4.246196e+08	1.166100e+00	3.300000e+00	
815	4.265795e+08	1.160207e+00	3.300000e+00	
816	4.285485e+08	1.154349e+00	3.300000e+00	
817	4.305266e+08	1.148524e+00	3.300000e+00	
818	4.325138e+08	1.142732e+00	3.300000e+00	
819	4.345102e+08	1.136973e+00	3.300000e+00	
820	4.365158e+08	1.131247e+00	3.300000e+00	
821	4.385307e+08	1.125554e+00	3.300000e+00	
822	4.405549e+08	1.119893e+00	3.300000e+00	
823	4.425884e+08	1.114265e+00	3.300000e+00	
824	4.446313e+08	1.108668e+00	3.300000e+00	
825	4.466836e+08	1.103103e+00	3.300000e+00	
826	4.487454e+08	1.097570e+00	3.300000e+00	
827	4.508167e+08	1.092067e+00	3.300000e+00	
828	4.528976e+08	1.086596e+00	3.300000e+00	
829	4.549881e+08	1.081156e+00	3.300000e+00	
830	4.570882e+08	1.075747e+00	3.300000e+00	
831	4.591980e+08	1.070368e+00	3.300000e+00	
832	4.613176e+08	1.065020e+00	3.300000e+00	
833	4.634469e+08	1.059701e+00	3.300000e+00	
834	4.655861e+08	1.054412e+00	3.300000e+00	
835	4.677351e+08	1.049153e+00	3.300000e+00	
836	4.698941e+08	1.043924e+00	3.300000e+00	
837	4.720630e+08	1.038724e+00	3.300000e+00	
838	4.742420e+08	1.033553e+00	3.300000e+00	
839	4.764310e+08	1.028410e+00	3.300000e+00	
840	4.786301e+08	1.023297e+00	3.300000e+00	
841	4.808393e+08	1.018212e+00	3.300000e+00	
842	4.830588e+08	1.013155e+00	3.300000e+00	
843	4.852885e+08	1.008127e+00	3.300000e+00	
844	4.875285e+08	1.003126e+00	3.300000e+00	
845	4.897788e+08	9.981530e-01	3.300000e+00	
846	4.920395e+08	9.932077e-01	3.300000e+00	
847	4.943107e+08	9.882897e-01	3.300000e+00	
848	4.965923e+08	9.833989e-01	3.300000e+00	
849	4.988845e+08	9.785352e-01	3.300000e+00	
850	5.011872e+08	9.736983e-01	3.300000e+00	
851	5.035006e+08	9.688880e-01	3.300000e+00	
852	5.058247e+08	9.641042e-01	3.300000e+00	
853	5.081594e+08	9.593468e-01	3.300000e+00	
854	5.105050e+08	9.546154e-01	3.300000e+00	
855	5.128614e+08	9.499101e-01	3.300000e+00	
856	5.152286e+08	9.452305e-01	3.300000e+00	
857	5.176068e+08	9.405765e-01	3.300000e+00	
858	5.199960e+08	9.359480e-01	3.300000e+00	
859	5.223962e+08	9.313448e-01	3.300000e+00	
860	5.248075e+08	9.267667e-01	3.300000e+00	
861	5.272299e+08	9.222135e-01	3.300000e+00	
862	5.296634e+08	9.176852e-01	3.300000e+00	
863	5.321083e+08	9.131814e-01	3.300000e+00	
864	5.345644e+08	9.087022e-01	3.300000e+00	
865	5.370318e+08	9.042472e-01	3.300000e+00	
866	5.395106e+08	8.998164e-01	3.300000e+00	

Index   frequency       vm(to_match)    vm(source)      
--------------------------------------------------------------------------------
867	5.420009e+08	8.954096e-01	3.300000e+00	
868	5.445027e+08	8.910266e-01	3.300000e+00	
869	5.470160e+08	8.866673e-01	3.300000e+00	
870	5.495409e+08	8.823315e-01	3.300000e+00	
871	5.520774e+08	8.780192e-01	3.300000e+00	
872	5.546257e+08	8.737300e-01	3.300000e+00	
873	5.571857e+08	8.694639e-01	3.300000e+00	
874	5.597576e+08	8.652207e-01	3.300000e+00	
875	5.623413e+08	8.610003e-01	3.300000e+00	
876	5.649370e+08	8.568026e-01	3.300000e+00	
877	5.675446e+08	8.526273e-01	3.300000e+00	
878	5.701643e+08	8.484744e-01	3.300000e+00	
879	5.727960e+08	8.443437e-01	3.300000e+00	
880	5.754399e+08	8.402350e-01	3.300000e+00	
881	5.780960e+08	8.361483e-01	3.300000e+00	
882	5.807644e+08	8.320833e-01	3.300000e+00	
883	5.834451e+08	8.280400e-01	3.300000e+00	
884	5.861382e+08	8.240181e-01	3.300000e+00	
885	5.888437e+08	8.200177e-01	3.300000e+00	
886	5.915616e+08	8.160384e-01	3.300000e+00	
887	5.942922e+08	8.120803e-01	3.300000e+00	
888	5.970353e+08	8.081431e-01	3.300000e+00	
889	5.997911e+08	8.042268e-01	3.300000e+00	
890	6.025596e+08	8.003312e-01	3.300000e+00	
891	6.053409e+08	7.964561e-01	3.300000e+00	
892	6.081350e+08	7.926015e-01	3.300000e+00	
893	6.109420e+08	7.887672e-01	3.300000e+00	
894	6.137620e+08	7.849530e-01	3.300000e+00	
895	6.165950e+08	7.811590e-01	3.300000e+00	
896	6.194411e+08	7.773848e-01	3.300000e+00	
897	6.223003e+08	7.736305e-01	3.300000e+00	
898	6.251727e+08	7.698959e-01	3.300000e+00	
899	6.280584e+08	7.661808e-01	3.300000e+00	
900	6.309573e+08	7.624852e-01	3.300000e+00	
901	6.338697e+08	7.588089e-01	3.300000e+00	
902	6.367955e+08	7.551518e-01	3.300000e+00	
903	6.397348e+08	7.515138e-01	3.300000e+00	
904	6.426877e+08	7.478948e-01	3.300000e+00	
905	6.456542e+08	7.442946e-01	3.300000e+00	
906	6.486344e+08	7.407132e-01	3.300000e+00	
907	6.516284e+08	7.371503e-01	3.300000e+00	
908	6.546362e+08	7.336060e-01	3.300000e+00	
909	6.576578e+08	7.300801e-01	3.300000e+00	
910	6.606934e+08	7.265725e-01	3.300000e+00	
911	6.637431e+08	7.230830e-01	3.300000e+00	
912	6.668068e+08	7.196116e-01	3.300000e+00	
913	6.698846e+08	7.161582e-01	3.300000e+00	
914	6.729767e+08	7.127225e-01	3.300000e+00	
915	6.760830e+08	7.093047e-01	3.300000e+00	
916	6.792036e+08	7.059044e-01	3.300000e+00	
917	6.823387e+08	7.025217e-01	3.300000e+00	
918	6.854882e+08	6.991564e-01	3.300000e+00	
919	6.886523e+08	6.958084e-01	3.300000e+00	
920	6.918310e+08	6.924776e-01	3.300000e+00	
921	6.950243e+08	6.891639e-01	3.300000e+00	
922	6.982324e+08	6.858672e-01	3.300000e+00	
923	7.014553e+08	6.825874e-01	3.300000e+00	
924	7.046931e+08	6.793245e-01	3.300000e+00	

Index   frequency       vm(to_match)    vm(source)      
--------------------------------------------------------------------------------
925	7.079458e+08	6.760782e-01	3.300000e+00	
926	7.112135e+08	6.728485e-01	3.300000e+00	
927	7.144963e+08	6.696353e-01	3.300000e+00	
928	7.177943e+08	6.664385e-01	3.300000e+00	
929	7.211075e+08	6.632580e-01	3.300000e+00	
930	7.244360e+08	6.600938e-01	3.300000e+00	
931	7.277798e+08	6.569456e-01	3.300000e+00	
932	7.311391e+08	6.538135e-01	3.300000e+00	
933	7.345139e+08	6.506973e-01	3.300000e+00	
934	7.379042e+08	6.475969e-01	3.300000e+00	
935	7.413102e+08	6.445123e-01	3.300000e+00	
936	7.447320e+08	6.414433e-01	3.300000e+00	
937	7.481695e+08	6.383899e-01	3.300000e+00	
938	7.516229e+08	6.353519e-01	3.300000e+00	
939	7.550922e+08	6.323293e-01	3.300000e+00	
940	7.585776e+08	6.293220e-01	3.300000e+00	
941	7.620790e+08	6.263299e-01	3.300000e+00	
942	7.655966e+08	6.233529e-01	3.300000e+00	
943	7.691304e+08	6.203909e-01	3.300000e+00	
944	7.726806e+08	6.174438e-01	3.300000e+00	
945	7.762471e+08	6.145116e-01	3.300000e+00	
946	7.798301e+08	6.115942e-01	3.300000e+00	
947	7.834296e+08	6.086914e-01	3.300000e+00	
948	7.870458e+08	6.058032e-01	3.300000e+00	
949	7.906786e+08	6.029295e-01	3.300000e+00	
950	7.943282e+08	6.000703e-01	3.300000e+00	
951	7.979947e+08	5.972254e-01	3.300000e+00	
952	8.016781e+08	5.943948e-01	3.300000e+00	
953	8.053784e+08	5.915783e-01	3.300000e+00	
954	8.090959e+08	5.887759e-01	3.300000e+00	
955	8.128305e+08	5.859876e-01	3.300000e+00	
956	8.165824e+08	5.832132e-01	3.300000e+00	
957	8.203515e+08	5.804526e-01	3.300000e+00	
958	8.241381e+08	5.777059e-01	3.300000e+00	
959	8.279422e+08	5.749728e-01	3.300000e+00	
960	8.317638e+08	5.722533e-01	3.300000e+00	
961	8.356030e+08	5.695474e-01	3.300000e+00	
962	8.394600e+08	5.668550e-01	3.300000e+00	
963	8.433348e+08	5.641760e-01	3.300000e+00	
964	8.472274e+08	5.615103e-01	3.300000e+00	
965	8.511380e+08	5.588578e-01	3.300000e+00	
966	8.550667e+08	5.562185e-01	3.300000e+00	
967	8.590135e+08	5.535923e-01	3.300000e+00	
968	8.629785e+08	5.509792e-01	3.300000e+00	
969	8.669619e+08	5.483790e-01	3.300000e+00	
970	8.709636e+08	5.457916e-01	3.300000e+00	
971	8.749838e+08	5.432171e-01	3.300000e+00	
972	8.790225e+08	5.406553e-01	3.300000e+00	
973	8.830799e+08	5.381062e-01	3.300000e+00	
974	8.871560e+08	5.355696e-01	3.300000e+00	
975	8.912509e+08	5.330456e-01	3.300000e+00	
976	8.953648e+08	5.305341e-01	3.300000e+00	
977	8.994976e+08	5.280349e-01	3.300000e+00	
978	9.036495e+08	5.255481e-01	3.300000e+00	
979	9.078205e+08	5.230735e-01	3.300000e+00	
980	9.120108e+08	5.206111e-01	3.300000e+00	
981	9.162205e+08	5.181608e-01	3.300000e+00	
982	9.204496e+08	5.157225e-01	3.300000e+00	

Index   frequency       vm(to_match)    vm(source)      
--------------------------------------------------------------------------------
983	9.246982e+08	5.132963e-01	3.300000e+00	
984	9.289664e+08	5.108819e-01	3.300000e+00	
985	9.332543e+08	5.084794e-01	3.300000e+00	
986	9.375620e+08	5.060888e-01	3.300000e+00	
987	9.418896e+08	5.037098e-01	3.300000e+00	
988	9.462372e+08	5.013425e-01	3.300000e+00	
989	9.506048e+08	4.989868e-01	3.300000e+00	
990	9.549926e+08	4.966426e-01	3.300000e+00	
991	9.594006e+08	4.943099e-01	3.300000e+00	
992	9.638290e+08	4.919886e-01	3.300000e+00	
993	9.682779e+08	4.896786e-01	3.300000e+00	
994	9.727472e+08	4.873800e-01	3.300000e+00	
995	9.772372e+08	4.850925e-01	3.300000e+00	
996	9.817479e+08	4.828163e-01	3.300000e+00	
997	9.862795e+08	4.805511e-01	3.300000e+00	
998	9.908319e+08	4.782970e-01	3.300000e+00	
999	9.954054e+08	4.760538e-01	3.300000e+00	
1000	1.000000e+09	4.738216e-01	3.300000e+00	
1001	1.004616e+09	4.716003e-01	3.300000e+00	
1002	1.009253e+09	4.693898e-01	3.300000e+00	
1003	1.013911e+09	4.671900e-01	3.300000e+00	
1004	1.018591e+09	4.650009e-01	3.300000e+00	
1005	1.023293e+09	4.628224e-01	3.300000e+00	
1006	1.028016e+09	4.606546e-01	3.300000e+00	
1007	1.032761e+09	4.584972e-01	3.300000e+00	
1008	1.037528e+09	4.563504e-01	3.300000e+00	
1009	1.042317e+09	4.542139e-01	3.300000e+00	
1010	1.047129e+09	4.520878e-01	3.300000e+00	
1011	1.051962e+09	4.499720e-01	3.300000e+00	
1012	1.056818e+09	4.478664e-01	3.300000e+00	
1013	1.061696e+09	4.457711e-01	3.300000e+00	
1014	1.066596e+09	4.436859e-01	3.300000e+00	
1015	1.071519e+09	4.416107e-01	3.300000e+00	
1016	1.076465e+09	4.395456e-01	3.300000e+00	
1017	1.081434e+09	4.374905e-01	3.300000e+00	
1018	1.086426e+09	4.354453e-01	3.300000e+00	
1019	1.091440e+09	4.334100e-01	3.300000e+00	
1020	1.096478e+09	4.313845e-01	3.300000e+00	
1021	1.101539e+09	4.293688e-01	3.300000e+00	
1022	1.106624e+09	4.273628e-01	3.300000e+00	
1023	1.111732e+09	4.253664e-01	3.300000e+00	
1024	1.116863e+09	4.233797e-01	3.300000e+00	
1025	1.122018e+09	4.214026e-01	3.300000e+00	
1026	1.127197e+09	4.194350e-01	3.300000e+00	
1027	1.132400e+09	4.174768e-01	3.300000e+00	
1028	1.137627e+09	4.155281e-01	3.300000e+00	
1029	1.142878e+09	4.135887e-01	3.300000e+00	
1030	1.148154e+09	4.116587e-01	3.300000e+00	
1031	1.153453e+09	4.097379e-01	3.300000e+00	
1032	1.158777e+09	4.078264e-01	3.300000e+00	
1033	1.164126e+09	4.059240e-01	3.300000e+00	
1034	1.169499e+09	4.040308e-01	3.300000e+00	
1035	1.174898e+09	4.021466e-01	3.300000e+00	
1036	1.180321e+09	4.002715e-01	3.300000e+00	
1037	1.185769e+09	3.984054e-01	3.300000e+00	
1038	1.191242e+09	3.965482e-01	3.300000e+00	
1039	1.196741e+09	3.946999e-01	3.300000e+00	
1040	1.202264e+09	3.928605e-01	3.300000e+00	

Index   frequency       vm(to_match)    vm(source)      
--------------------------------------------------------------------------------
1041	1.207814e+09	3.910299e-01	3.300000e+00	
1042	1.213389e+09	3.892080e-01	3.300000e+00	
1043	1.218990e+09	3.873949e-01	3.300000e+00	
1044	1.224616e+09	3.855904e-01	3.300000e+00	
1045	1.230269e+09	3.837945e-01	3.300000e+00	
1046	1.235947e+09	3.820073e-01	3.300000e+00	
1047	1.241652e+09	3.802285e-01	3.300000e+00	
1048	1.247384e+09	3.784583e-01	3.300000e+00	
1049	1.253141e+09	3.766965e-01	3.300000e+00	
1050	1.258925e+09	3.749431e-01	3.300000e+00	
1051	1.264736e+09	3.731981e-01	3.300000e+00	
1052	1.270574e+09	3.714614e-01	3.300000e+00	
1053	1.276439e+09	3.697330e-01	3.300000e+00	
1054	1.282331e+09	3.680128e-01	3.300000e+00	
1055	1.288250e+09	3.663009e-01	3.300000e+00	
1056	1.294196e+09	3.645970e-01	3.300000e+00	
1057	1.300170e+09	3.629013e-01	3.300000e+00	
1058	1.306171e+09	3.612137e-01	3.300000e+00	
1059	1.312200e+09	3.595341e-01	3.300000e+00	
1060	1.318257e+09	3.578625e-01	3.300000e+00	
1061	1.324342e+09	3.561988e-01	3.300000e+00	
1062	1.330454e+09	3.545430e-01	3.300000e+00	
1063	1.336596e+09	3.528952e-01	3.300000e+00	
1064	1.342765e+09	3.512551e-01	3.300000e+00	
1065	1.348963e+09	3.496228e-01	3.300000e+00	
1066	1.355189e+09	3.479983e-01	3.300000e+00	
1067	1.361445e+09	3.463815e-01	3.300000e+00	
1068	1.367729e+09	3.447724e-01	3.300000e+00	
1069	1.374042e+09	3.431709e-01	3.300000e+00	
1070	1.380384e+09	3.415770e-01	3.300000e+00	
1071	1.386756e+09	3.399906e-01	3.300000e+00	
1072	1.393157e+09	3.384118e-01	3.300000e+00	
1073	1.399587e+09	3.368405e-01	3.300000e+00	
1074	1.406048e+09	3.352766e-01	3.300000e+00	
1075	1.412538e+09	3.337201e-01	3.300000e+00	
1076	1.419058e+09	3.321710e-01	3.300000e+00	
1077	1.425608e+09	3.306292e-01	3.300000e+00	
1078	1.432188e+09	3.290947e-01	3.300000e+00	
1079	1.438799e+09	3.275675e-01	3.300000e+00	
1080	1.445440e+09	3.260475e-01	3.300000e+00	
1081	1.452112e+09	3.245347e-01	3.300000e+00	
1082	1.458814e+09	3.230290e-01	3.300000e+00	
1083	1.465548e+09	3.215305e-01	3.300000e+00	
1084	1.472313e+09	3.200390e-01	3.300000e+00	
1085	1.479108e+09	3.185546e-01	3.300000e+00	
1086	1.485936e+09	3.170772e-01	3.300000e+00	
1087	1.492794e+09	3.156067e-01	3.300000e+00	
1088	1.499685e+09	3.141433e-01	3.300000e+00	
1089	1.506607e+09	3.126867e-01	3.300000e+00	
1090	1.513561e+09	3.112370e-01	3.300000e+00	
1091	1.520548e+09	3.097941e-01	3.300000e+00	
1092	1.527566e+09	3.083581e-01	3.300000e+00	
1093	1.534617e+09	3.069288e-01	3.300000e+00	
1094	1.541700e+09	3.055062e-01	3.300000e+00	
1095	1.548817e+09	3.040904e-01	3.300000e+00	
1096	1.555966e+09	3.026812e-01	3.300000e+00	
1097	1.563148e+09	3.012787e-01	3.300000e+00	
1098	1.570363e+09	2.998827e-01	3.300000e+00	

Index   frequency       vm(to_match)    vm(source)      
--------------------------------------------------------------------------------
1099	1.577611e+09	2.984934e-01	3.300000e+00	
1100	1.584893e+09	2.971106e-01	3.300000e+00	
1101	1.592209e+09	2.957343e-01	3.300000e+00	
1102	1.599558e+09	2.943644e-01	3.300000e+00	
1103	1.606941e+09	2.930010e-01	3.300000e+00	
1104	1.614359e+09	2.916441e-01	3.300000e+00	
1105	1.621810e+09	2.902935e-01	3.300000e+00	
1106	1.629296e+09	2.889493e-01	3.300000e+00	
1107	1.636817e+09	2.876113e-01	3.300000e+00	
1108	1.644372e+09	2.862797e-01	3.300000e+00	
1109	1.651962e+09	2.849543e-01	3.300000e+00	
1110	1.659587e+09	2.836352e-01	3.300000e+00	
1111	1.667247e+09	2.823222e-01	3.300000e+00	
1112	1.674943e+09	2.810155e-01	3.300000e+00	
1113	1.682674e+09	2.797148e-01	3.300000e+00	
1114	1.690441e+09	2.784203e-01	3.300000e+00	
1115	1.698244e+09	2.771318e-01	3.300000e+00	
1116	1.706082e+09	2.758494e-01	3.300000e+00	
1117	1.713957e+09	2.745730e-01	3.300000e+00	
1118	1.721869e+09	2.733026e-01	3.300000e+00	
1119	1.729816e+09	2.720381e-01	3.300000e+00	
1120	1.737801e+09	2.707796e-01	3.300000e+00	
1121	1.745822e+09	2.695270e-01	3.300000e+00	
1122	1.753881e+09	2.682802e-01	3.300000e+00	
1123	1.761976e+09	2.670393e-01	3.300000e+00	
1124	1.770109e+09	2.658042e-01	3.300000e+00	
1125	1.778279e+09	2.645749e-01	3.300000e+00	
1126	1.786488e+09	2.633513e-01	3.300000e+00	
1127	1.794734e+09	2.621335e-01	3.300000e+00	

                                 * spicenetlist
                                 AC Analysis  Sat Nov  4 15:15:42  2017
--------------------------------------------------------------------------------
Index   frequency       v_v1#branch                     
--------------------------------------------------------------------------------
0	1.000000e+07	-3.16836e-04,	-4.56188e-03	
1	1.004616e+07	-3.19782e-04,	-4.58294e-03	
2	1.009253e+07	-3.22756e-04,	-4.60410e-03	
3	1.013911e+07	-3.25757e-04,	-4.62535e-03	
4	1.018591e+07	-3.28787e-04,	-4.64670e-03	
5	1.023293e+07	-3.31845e-04,	-4.66815e-03	
6	1.028016e+07	-3.34931e-04,	-4.68970e-03	
7	1.032761e+07	-3.38047e-04,	-4.71135e-03	
8	1.037528e+07	-3.41191e-04,	-4.73310e-03	
9	1.042317e+07	-3.44365e-04,	-4.75494e-03	
10	1.047129e+07	-3.47569e-04,	-4.77689e-03	
11	1.051962e+07	-3.50802e-04,	-4.79895e-03	
12	1.056818e+07	-3.54066e-04,	-4.82110e-03	
13	1.061696e+07	-3.57360e-04,	-4.84335e-03	
14	1.066596e+07	-3.60685e-04,	-4.86571e-03	
15	1.071519e+07	-3.64042e-04,	-4.88817e-03	
16	1.076465e+07	-3.67429e-04,	-4.91074e-03	
17	1.081434e+07	-3.70849e-04,	-4.93340e-03	
18	1.086426e+07	-3.74300e-04,	-4.95618e-03	
19	1.091440e+07	-3.77784e-04,	-4.97906e-03	
20	1.096478e+07	-3.81300e-04,	-5.00204e-03	
21	1.101539e+07	-3.84849e-04,	-5.02513e-03	
22	1.106624e+07	-3.88432e-04,	-5.04833e-03	
23	1.111732e+07	-3.92048e-04,	-5.07163e-03	
24	1.116863e+07	-3.95697e-04,	-5.09504e-03	
25	1.122018e+07	-3.99381e-04,	-5.11856e-03	
26	1.127197e+07	-4.03100e-04,	-5.14219e-03	
27	1.132400e+07	-4.06853e-04,	-5.16593e-03	
28	1.137627e+07	-4.10642e-04,	-5.18977e-03	
29	1.142878e+07	-4.14466e-04,	-5.21373e-03	
30	1.148154e+07	-4.18326e-04,	-5.23780e-03	
31	1.153453e+07	-4.22222e-04,	-5.26197e-03	
32	1.158777e+07	-4.26154e-04,	-5.28626e-03	
33	1.164126e+07	-4.30124e-04,	-5.31067e-03	
34	1.169499e+07	-4.34131e-04,	-5.33518e-03	
35	1.174898e+07	-4.38175e-04,	-5.35981e-03	
36	1.180321e+07	-4.42257e-04,	-5.38455e-03	
37	1.185769e+07	-4.46377e-04,	-5.40940e-03	
38	1.191242e+07	-4.50536e-04,	-5.43437e-03	
39	1.196741e+07	-4.54735e-04,	-5.45946e-03	
40	1.202264e+07	-4.58972e-04,	-5.48466e-03	
41	1.207814e+07	-4.63249e-04,	-5.50998e-03	
42	1.213389e+07	-4.67567e-04,	-5.53541e-03	
43	1.218990e+07	-4.71925e-04,	-5.56096e-03	
44	1.224616e+07	-4.76324e-04,	-5.58663e-03	
45	1.230269e+07	-4.80764e-04,	-5.61242e-03	
46	1.235947e+07	-4.85246e-04,	-5.63833e-03	
47	1.241652e+07	-4.89770e-04,	-5.66436e-03	
48	1.247384e+07	-4.94336e-04,	-5.69050e-03	
49	1.253141e+07	-4.98945e-04,	-5.71677e-03	
50	1.258925e+07	-5.03598e-04,	-5.74316e-03	
51	1.264736e+07	-5.08294e-04,	-5.76967e-03	
52	1.270574e+07	-5.13035e-04,	-5.79630e-03	
53	1.276439e+07	-5.17820e-04,	-5.82306e-03	
54	1.282331e+07	-5.22650e-04,	-5.84993e-03	

Index   frequency       v_v1#branch                     
--------------------------------------------------------------------------------
55	1.288250e+07	-5.27525e-04,	-5.87694e-03	
56	1.294196e+07	-5.32447e-04,	-5.90406e-03	
57	1.300170e+07	-5.37414e-04,	-5.93132e-03	
58	1.306171e+07	-5.42429e-04,	-5.95870e-03	
59	1.312200e+07	-5.47490e-04,	-5.98620e-03	
60	1.318257e+07	-5.52599e-04,	-6.01383e-03	
61	1.324342e+07	-5.57756e-04,	-6.04159e-03	
62	1.330454e+07	-5.62962e-04,	-6.06948e-03	
63	1.336596e+07	-5.68217e-04,	-6.09749e-03	
64	1.342765e+07	-5.73521e-04,	-6.12564e-03	
65	1.348963e+07	-5.78875e-04,	-6.15391e-03	
66	1.355189e+07	-5.84280e-04,	-6.18232e-03	
67	1.361445e+07	-5.89735e-04,	-6.21086e-03	
68	1.367729e+07	-5.95242e-04,	-6.23952e-03	
69	1.374042e+07	-6.00801e-04,	-6.26832e-03	
70	1.380384e+07	-6.06412e-04,	-6.29726e-03	
71	1.386756e+07	-6.12076e-04,	-6.32632e-03	
72	1.393157e+07	-6.17793e-04,	-6.35552e-03	
73	1.399587e+07	-6.23564e-04,	-6.38486e-03	
74	1.406048e+07	-6.29390e-04,	-6.41433e-03	
75	1.412538e+07	-6.35271e-04,	-6.44394e-03	
76	1.419058e+07	-6.41207e-04,	-6.47368e-03	
77	1.425608e+07	-6.47199e-04,	-6.50356e-03	
78	1.432188e+07	-6.53248e-04,	-6.53358e-03	
79	1.438799e+07	-6.59354e-04,	-6.56373e-03	
80	1.445440e+07	-6.65517e-04,	-6.59403e-03	
81	1.452112e+07	-6.71739e-04,	-6.62446e-03	
82	1.458814e+07	-6.78019e-04,	-6.65504e-03	
83	1.465548e+07	-6.84359e-04,	-6.68576e-03	
84	1.472313e+07	-6.90758e-04,	-6.71661e-03	
85	1.479108e+07	-6.97218e-04,	-6.74761e-03	
86	1.485936e+07	-7.03739e-04,	-6.77876e-03	
87	1.492794e+07	-7.10322e-04,	-6.81004e-03	
88	1.499685e+07	-7.16967e-04,	-6.84147e-03	
89	1.506607e+07	-7.23675e-04,	-6.87305e-03	
90	1.513561e+07	-7.30446e-04,	-6.90477e-03	
91	1.520548e+07	-7.37281e-04,	-6.93664e-03	
92	1.527566e+07	-7.44181e-04,	-6.96865e-03	
93	1.534617e+07	-7.51146e-04,	-7.00082e-03	
94	1.541700e+07	-7.58177e-04,	-7.03313e-03	
95	1.548817e+07	-7.65275e-04,	-7.06559e-03	
96	1.555966e+07	-7.72440e-04,	-7.09820e-03	
97	1.563148e+07	-7.79673e-04,	-7.13095e-03	
98	1.570363e+07	-7.86974e-04,	-7.16387e-03	
99	1.577611e+07	-7.94345e-04,	-7.19693e-03	
100	1.584893e+07	-8.01785e-04,	-7.23014e-03	
101	1.592209e+07	-8.09296e-04,	-7.26351e-03	
102	1.599558e+07	-8.16878e-04,	-7.29703e-03	
103	1.606941e+07	-8.24532e-04,	-7.33071e-03	
104	1.614359e+07	-8.32258e-04,	-7.36454e-03	
105	1.621810e+07	-8.40058e-04,	-7.39852e-03	
106	1.629296e+07	-8.47932e-04,	-7.43267e-03	
107	1.636817e+07	-8.55880e-04,	-7.46697e-03	
108	1.644372e+07	-8.63904e-04,	-7.50142e-03	
109	1.651962e+07	-8.72005e-04,	-7.53604e-03	
110	1.659587e+07	-8.80182e-04,	-7.57082e-03	
111	1.667247e+07	-8.88437e-04,	-7.60575e-03	
112	1.674943e+07	-8.96770e-04,	-7.64085e-03	

Index   frequency       v_v1#branch                     
--------------------------------------------------------------------------------
113	1.682674e+07	-9.05182e-04,	-7.67611e-03	
114	1.690441e+07	-9.13675e-04,	-7.71153e-03	
115	1.698244e+07	-9.22248e-04,	-7.74712e-03	
116	1.706082e+07	-9.30903e-04,	-7.78287e-03	
117	1.713957e+07	-9.39640e-04,	-7.81878e-03	
118	1.721869e+07	-9.48460e-04,	-7.85486e-03	
119	1.729816e+07	-9.57364e-04,	-7.89110e-03	
120	1.737801e+07	-9.66353e-04,	-7.92751e-03	
121	1.745822e+07	-9.75428e-04,	-7.96409e-03	
122	1.753881e+07	-9.84589e-04,	-8.00084e-03	
123	1.761976e+07	-9.93837e-04,	-8.03776e-03	
124	1.770109e+07	-1.00317e-03,	-8.07484e-03	
125	1.778279e+07	-1.01260e-03,	-8.11210e-03	
126	1.786488e+07	-1.02211e-03,	-8.14953e-03	
127	1.794734e+07	-1.03172e-03,	-8.18713e-03	
128	1.803018e+07	-1.04142e-03,	-8.22490e-03	
129	1.811340e+07	-1.05121e-03,	-8.26285e-03	
130	1.819701e+07	-1.06109e-03,	-8.30097e-03	
131	1.828100e+07	-1.07107e-03,	-8.33927e-03	
132	1.836538e+07	-1.08114e-03,	-8.37774e-03	
133	1.845015e+07	-1.09131e-03,	-8.41639e-03	
134	1.853532e+07	-1.10158e-03,	-8.45522e-03	
135	1.862087e+07	-1.11194e-03,	-8.49423e-03	
136	1.870682e+07	-1.12241e-03,	-8.53341e-03	
137	1.879317e+07	-1.13297e-03,	-8.57278e-03	
138	1.887991e+07	-1.14364e-03,	-8.61233e-03	
139	1.896706e+07	-1.15440e-03,	-8.65206e-03	
140	1.905461e+07	-1.16527e-03,	-8.69197e-03	
141	1.914256e+07	-1.17625e-03,	-8.73206e-03	
142	1.923092e+07	-1.18733e-03,	-8.77234e-03	
143	1.931968e+07	-1.19851e-03,	-8.81280e-03	
144	1.940886e+07	-1.20981e-03,	-8.85345e-03	
145	1.949845e+07	-1.22121e-03,	-8.89429e-03	
146	1.958845e+07	-1.23272e-03,	-8.93531e-03	
147	1.967886e+07	-1.24434e-03,	-8.97653e-03	
148	1.976970e+07	-1.25607e-03,	-9.01793e-03	
149	1.986095e+07	-1.26792e-03,	-9.05952e-03	
150	1.995262e+07	-1.27988e-03,	-9.10130e-03	
151	2.004472e+07	-1.29195e-03,	-9.14328e-03	
152	2.013724e+07	-1.30414e-03,	-9.18544e-03	
153	2.023019e+07	-1.31645e-03,	-9.22781e-03	
154	2.032357e+07	-1.32887e-03,	-9.27036e-03	
155	2.041738e+07	-1.34142e-03,	-9.31311e-03	
156	2.051162e+07	-1.35408e-03,	-9.35606e-03	
157	2.060630e+07	-1.36687e-03,	-9.39920e-03	
158	2.070141e+07	-1.37978e-03,	-9.44254e-03	
159	2.079697e+07	-1.39281e-03,	-9.48608e-03	
160	2.089296e+07	-1.40597e-03,	-9.52982e-03	
161	2.098940e+07	-1.41926e-03,	-9.57376e-03	
162	2.108628e+07	-1.43268e-03,	-9.61790e-03	
163	2.118361e+07	-1.44622e-03,	-9.66224e-03	
164	2.128139e+07	-1.45990e-03,	-9.70679e-03	
165	2.137962e+07	-1.47370e-03,	-9.75154e-03	
166	2.147830e+07	-1.48764e-03,	-9.79650e-03	
167	2.157744e+07	-1.50172e-03,	-9.84166e-03	
168	2.167704e+07	-1.51593e-03,	-9.88703e-03	
169	2.177710e+07	-1.53028e-03,	-9.93260e-03	
170	2.187762e+07	-1.54477e-03,	-9.97839e-03	

Index   frequency       v_v1#branch                     
--------------------------------------------------------------------------------
171	2.197860e+07	-1.55939e-03,	-1.00244e-02	
172	2.208005e+07	-1.57416e-03,	-1.00706e-02	
173	2.218196e+07	-1.58907e-03,	-1.01170e-02	
174	2.228435e+07	-1.60413e-03,	-1.01636e-02	
175	2.238721e+07	-1.61933e-03,	-1.02105e-02	
176	2.249055e+07	-1.63468e-03,	-1.02575e-02	
177	2.259436e+07	-1.65018e-03,	-1.03048e-02	
178	2.269865e+07	-1.66583e-03,	-1.03523e-02	
179	2.280342e+07	-1.68163e-03,	-1.04000e-02	
180	2.290868e+07	-1.69758e-03,	-1.04479e-02	
181	2.301442e+07	-1.71369e-03,	-1.04960e-02	
182	2.312065e+07	-1.72996e-03,	-1.05444e-02	
183	2.322737e+07	-1.74638e-03,	-1.05930e-02	
184	2.333458e+07	-1.76297e-03,	-1.06418e-02	
185	2.344229e+07	-1.77971e-03,	-1.06908e-02	
186	2.355049e+07	-1.79662e-03,	-1.07401e-02	
187	2.365920e+07	-1.81369e-03,	-1.07895e-02	
188	2.376840e+07	-1.83093e-03,	-1.08392e-02	
189	2.387811e+07	-1.84833e-03,	-1.08892e-02	
190	2.398833e+07	-1.86591e-03,	-1.09393e-02	
191	2.409905e+07	-1.88366e-03,	-1.09897e-02	
192	2.421029e+07	-1.90158e-03,	-1.10403e-02	
193	2.432204e+07	-1.91967e-03,	-1.10911e-02	
194	2.443431e+07	-1.93795e-03,	-1.11422e-02	
195	2.454709e+07	-1.95640e-03,	-1.11935e-02	
196	2.466039e+07	-1.97503e-03,	-1.12450e-02	
197	2.477422e+07	-1.99384e-03,	-1.12968e-02	
198	2.488857e+07	-2.01284e-03,	-1.13488e-02	
199	2.500345e+07	-2.03202e-03,	-1.14011e-02	
200	2.511886e+07	-2.05139e-03,	-1.14535e-02	
201	2.523481e+07	-2.07096e-03,	-1.15063e-02	
202	2.535129e+07	-2.09071e-03,	-1.15592e-02	
203	2.546830e+07	-2.11066e-03,	-1.16124e-02	
204	2.558586e+07	-2.13080e-03,	-1.16659e-02	
205	2.570396e+07	-2.15114e-03,	-1.17195e-02	
206	2.582260e+07	-2.17168e-03,	-1.17735e-02	
207	2.594179e+07	-2.19242e-03,	-1.18276e-02	
208	2.606154e+07	-2.21336e-03,	-1.18820e-02	
209	2.618183e+07	-2.23452e-03,	-1.19367e-02	
210	2.630268e+07	-2.25588e-03,	-1.19916e-02	
211	2.642409e+07	-2.27745e-03,	-1.20468e-02	
212	2.654606e+07	-2.29923e-03,	-1.21022e-02	
213	2.666859e+07	-2.32123e-03,	-1.21578e-02	
214	2.679168e+07	-2.34344e-03,	-1.22137e-02	
215	2.691535e+07	-2.36588e-03,	-1.22699e-02	
216	2.703958e+07	-2.38853e-03,	-1.23263e-02	
217	2.716439e+07	-2.41141e-03,	-1.23830e-02	
218	2.728978e+07	-2.43451e-03,	-1.24399e-02	
219	2.741574e+07	-2.45785e-03,	-1.24971e-02	
220	2.754229e+07	-2.48141e-03,	-1.25545e-02	
221	2.766942e+07	-2.50521e-03,	-1.26122e-02	
222	2.779713e+07	-2.52924e-03,	-1.26702e-02	
223	2.792544e+07	-2.55351e-03,	-1.27284e-02	
224	2.805434e+07	-2.57803e-03,	-1.27869e-02	
225	2.818383e+07	-2.60278e-03,	-1.28456e-02	
226	2.831392e+07	-2.62778e-03,	-1.29046e-02	
227	2.844461e+07	-2.65303e-03,	-1.29639e-02	
228	2.857591e+07	-2.67853e-03,	-1.30234e-02	

Index   frequency       v_v1#branch                     
--------------------------------------------------------------------------------
229	2.870781e+07	-2.70429e-03,	-1.30832e-02	
230	2.884032e+07	-2.73030e-03,	-1.31433e-02	
231	2.897344e+07	-2.75657e-03,	-1.32036e-02	
232	2.910717e+07	-2.78310e-03,	-1.32642e-02	
233	2.924152e+07	-2.80989e-03,	-1.33251e-02	
234	2.937650e+07	-2.83696e-03,	-1.33862e-02	
235	2.951209e+07	-2.86429e-03,	-1.34476e-02	
236	2.964831e+07	-2.89190e-03,	-1.35093e-02	
237	2.978516e+07	-2.91978e-03,	-1.35713e-02	
238	2.992265e+07	-2.94794e-03,	-1.36335e-02	
239	3.006076e+07	-2.97638e-03,	-1.36961e-02	
240	3.019952e+07	-3.00511e-03,	-1.37589e-02	
241	3.033891e+07	-3.03412e-03,	-1.38219e-02	
242	3.047895e+07	-3.06343e-03,	-1.38853e-02	
243	3.061963e+07	-3.09303e-03,	-1.39489e-02	
244	3.076097e+07	-3.12292e-03,	-1.40129e-02	
245	3.090295e+07	-3.15312e-03,	-1.40771e-02	
246	3.104560e+07	-3.18362e-03,	-1.41416e-02	
247	3.118890e+07	-3.21443e-03,	-1.42063e-02	
248	3.133286e+07	-3.24554e-03,	-1.42714e-02	
249	3.147748e+07	-3.27697e-03,	-1.43367e-02	
250	3.162278e+07	-3.30872e-03,	-1.44024e-02	
251	3.176874e+07	-3.34079e-03,	-1.44683e-02	
252	3.191538e+07	-3.37318e-03,	-1.45345e-02	
253	3.206269e+07	-3.40590e-03,	-1.46010e-02	
254	3.221069e+07	-3.43894e-03,	-1.46678e-02	
255	3.235937e+07	-3.47233e-03,	-1.47349e-02	
256	3.250873e+07	-3.50605e-03,	-1.48023e-02	
257	3.265878e+07	-3.54011e-03,	-1.48699e-02	
258	3.280953e+07	-3.57451e-03,	-1.49379e-02	
259	3.296097e+07	-3.60927e-03,	-1.50062e-02	
260	3.311311e+07	-3.64438e-03,	-1.50747e-02	
261	3.326596e+07	-3.67984e-03,	-1.51436e-02	
262	3.341950e+07	-3.71567e-03,	-1.52128e-02	
263	3.357376e+07	-3.75186e-03,	-1.52822e-02	
264	3.372873e+07	-3.78841e-03,	-1.53520e-02	
265	3.388442e+07	-3.82534e-03,	-1.54220e-02	
266	3.404082e+07	-3.86265e-03,	-1.54924e-02	
267	3.419794e+07	-3.90033e-03,	-1.55631e-02	
268	3.435579e+07	-3.93840e-03,	-1.56341e-02	
269	3.451437e+07	-3.97686e-03,	-1.57053e-02	
270	3.467369e+07	-4.01572e-03,	-1.57769e-02	
271	3.483373e+07	-4.05497e-03,	-1.58488e-02	
272	3.499452e+07	-4.09462e-03,	-1.59210e-02	
273	3.515604e+07	-4.13468e-03,	-1.59935e-02	
274	3.531832e+07	-4.17514e-03,	-1.60664e-02	
275	3.548134e+07	-4.21603e-03,	-1.61395e-02	
276	3.564511e+07	-4.25733e-03,	-1.62129e-02	
277	3.580964e+07	-4.29906e-03,	-1.62867e-02	
278	3.597493e+07	-4.34121e-03,	-1.63607e-02	
279	3.614099e+07	-4.38380e-03,	-1.64351e-02	
280	3.630781e+07	-4.42683e-03,	-1.65098e-02	
281	3.647539e+07	-4.47031e-03,	-1.65848e-02	
282	3.664376e+07	-4.51423e-03,	-1.66602e-02	
283	3.681290e+07	-4.55860e-03,	-1.67358e-02	
284	3.698282e+07	-4.60343e-03,	-1.68118e-02	
285	3.715352e+07	-4.64873e-03,	-1.68880e-02	
286	3.732502e+07	-4.69449e-03,	-1.69646e-02	

Index   frequency       v_v1#branch                     
--------------------------------------------------------------------------------
287	3.749730e+07	-4.74073e-03,	-1.70415e-02	
288	3.767038e+07	-4.78745e-03,	-1.71188e-02	
289	3.784426e+07	-4.83465e-03,	-1.71963e-02	
290	3.801894e+07	-4.88234e-03,	-1.72742e-02	
291	3.819443e+07	-4.93053e-03,	-1.73524e-02	
292	3.837072e+07	-4.97922e-03,	-1.74309e-02	
293	3.854784e+07	-5.02842e-03,	-1.75097e-02	
294	3.872576e+07	-5.07813e-03,	-1.75889e-02	
295	3.890451e+07	-5.12835e-03,	-1.76684e-02	
296	3.908409e+07	-5.17910e-03,	-1.77482e-02	
297	3.926449e+07	-5.23038e-03,	-1.78283e-02	
298	3.944573e+07	-5.28220e-03,	-1.79088e-02	
299	3.962780e+07	-5.33456e-03,	-1.79895e-02	
300	3.981072e+07	-5.38746e-03,	-1.80706e-02	
301	3.999447e+07	-5.44092e-03,	-1.81521e-02	
302	4.017908e+07	-5.49494e-03,	-1.82338e-02	
303	4.036454e+07	-5.54953e-03,	-1.83159e-02	
304	4.055085e+07	-5.60469e-03,	-1.83983e-02	
305	4.073803e+07	-5.66043e-03,	-1.84810e-02	
306	4.092607e+07	-5.71676e-03,	-1.85641e-02	
307	4.111497e+07	-5.77368e-03,	-1.86475e-02	
308	4.130475e+07	-5.83120e-03,	-1.87312e-02	
309	4.149540e+07	-5.88933e-03,	-1.88152e-02	
310	4.168694e+07	-5.94807e-03,	-1.88996e-02	
311	4.187936e+07	-6.00744e-03,	-1.89842e-02	
312	4.207266e+07	-6.06743e-03,	-1.90693e-02	
313	4.226686e+07	-6.12805e-03,	-1.91546e-02	
314	4.246196e+07	-6.18932e-03,	-1.92403e-02	
315	4.265795e+07	-6.25124e-03,	-1.93262e-02	
316	4.285485e+07	-6.31381e-03,	-1.94126e-02	
317	4.305266e+07	-6.37705e-03,	-1.94992e-02	
318	4.325138e+07	-6.44096e-03,	-1.95862e-02	
319	4.345102e+07	-6.50556e-03,	-1.96734e-02	
320	4.365158e+07	-6.57084e-03,	-1.97611e-02	
321	4.385307e+07	-6.63681e-03,	-1.98490e-02	
322	4.405549e+07	-6.70349e-03,	-1.99372e-02	
323	4.425884e+07	-6.77088e-03,	-2.00258e-02	
324	4.446313e+07	-6.83900e-03,	-2.01147e-02	
325	4.466836e+07	-6.90784e-03,	-2.02039e-02	
326	4.487454e+07	-6.97742e-03,	-2.02935e-02	
327	4.508167e+07	-7.04774e-03,	-2.03833e-02	
328	4.528976e+07	-7.11882e-03,	-2.04735e-02	
329	4.549881e+07	-7.19066e-03,	-2.05640e-02	
330	4.570882e+07	-7.26328e-03,	-2.06548e-02	
331	4.591980e+07	-7.33667e-03,	-2.07459e-02	
332	4.613176e+07	-7.41086e-03,	-2.08374e-02	
333	4.634469e+07	-7.48585e-03,	-2.09291e-02	
334	4.655861e+07	-7.56164e-03,	-2.10212e-02	
335	4.677351e+07	-7.63825e-03,	-2.11135e-02	
336	4.698941e+07	-7.71569e-03,	-2.12062e-02	
337	4.720630e+07	-7.79397e-03,	-2.12992e-02	
338	4.742420e+07	-7.87309e-03,	-2.13925e-02	
339	4.764310e+07	-7.95308e-03,	-2.14861e-02	
340	4.786301e+07	-8.03392e-03,	-2.15800e-02	
341	4.808393e+07	-8.11565e-03,	-2.16742e-02	
342	4.830588e+07	-8.19827e-03,	-2.17686e-02	
343	4.852885e+07	-8.28178e-03,	-2.18634e-02	
344	4.875285e+07	-8.36620e-03,	-2.19585e-02	

Index   frequency       v_v1#branch                     
--------------------------------------------------------------------------------
345	4.897788e+07	-8.45154e-03,	-2.20539e-02	
346	4.920395e+07	-8.53781e-03,	-2.21495e-02	
347	4.943107e+07	-8.62502e-03,	-2.22455e-02	
348	4.965923e+07	-8.71319e-03,	-2.23417e-02	
349	4.988845e+07	-8.80231e-03,	-2.24382e-02	
350	5.011872e+07	-8.89241e-03,	-2.25350e-02	
351	5.035006e+07	-8.98350e-03,	-2.26320e-02	
352	5.058247e+07	-9.07559e-03,	-2.27293e-02	
353	5.081594e+07	-9.16868e-03,	-2.28269e-02	
354	5.105050e+07	-9.26280e-03,	-2.29248e-02	
355	5.128614e+07	-9.35795e-03,	-2.30229e-02	
356	5.152286e+07	-9.45415e-03,	-2.31213e-02	
357	5.176068e+07	-9.55140e-03,	-2.32199e-02	
358	5.199960e+07	-9.64973e-03,	-2.33188e-02	
359	5.223962e+07	-9.74913e-03,	-2.34179e-02	
360	5.248075e+07	-9.84964e-03,	-2.35172e-02	
361	5.272299e+07	-9.95125e-03,	-2.36168e-02	
362	5.296634e+07	-1.00540e-02,	-2.37167e-02	
363	5.321083e+07	-1.01579e-02,	-2.38167e-02	
364	5.345644e+07	-1.02629e-02,	-2.39170e-02	
365	5.370318e+07	-1.03691e-02,	-2.40175e-02	
366	5.395106e+07	-1.04764e-02,	-2.41182e-02	
367	5.420009e+07	-1.05850e-02,	-2.42191e-02	
368	5.445027e+07	-1.06947e-02,	-2.43202e-02	
369	5.470160e+07	-1.08057e-02,	-2.44215e-02	
370	5.495409e+07	-1.09179e-02,	-2.45230e-02	
371	5.520774e+07	-1.10313e-02,	-2.46247e-02	
372	5.546257e+07	-1.11460e-02,	-2.47266e-02	
373	5.571857e+07	-1.12620e-02,	-2.48286e-02	
374	5.597576e+07	-1.13793e-02,	-2.49308e-02	
375	5.623413e+07	-1.14979e-02,	-2.50332e-02	
376	5.649370e+07	-1.16178e-02,	-2.51356e-02	
377	5.675446e+07	-1.17390e-02,	-2.52383e-02	
378	5.701643e+07	-1.18616e-02,	-2.53410e-02	
379	5.727960e+07	-1.19856e-02,	-2.54439e-02	
380	5.754399e+07	-1.21109e-02,	-2.55469e-02	
381	5.780960e+07	-1.22377e-02,	-2.56501e-02	
382	5.807644e+07	-1.23658e-02,	-2.57533e-02	
383	5.834451e+07	-1.24954e-02,	-2.58566e-02	
384	5.861382e+07	-1.26265e-02,	-2.59600e-02	
385	5.888437e+07	-1.27590e-02,	-2.60634e-02	
386	5.915616e+07	-1.28930e-02,	-2.61669e-02	
387	5.942922e+07	-1.30285e-02,	-2.62705e-02	
388	5.970353e+07	-1.31655e-02,	-2.63741e-02	
389	5.997911e+07	-1.33041e-02,	-2.64778e-02	
390	6.025596e+07	-1.34442e-02,	-2.65814e-02	
391	6.053409e+07	-1.35859e-02,	-2.66851e-02	
392	6.081350e+07	-1.37292e-02,	-2.67887e-02	
393	6.109420e+07	-1.38741e-02,	-2.68923e-02	
394	6.137620e+07	-1.40206e-02,	-2.69959e-02	
395	6.165950e+07	-1.41687e-02,	-2.70995e-02	
396	6.194411e+07	-1.43185e-02,	-2.72030e-02	
397	6.223003e+07	-1.44700e-02,	-2.73064e-02	
398	6.251727e+07	-1.46232e-02,	-2.74098e-02	
399	6.280584e+07	-1.47782e-02,	-2.75130e-02	
400	6.309573e+07	-1.49348e-02,	-2.76161e-02	
401	6.338697e+07	-1.50932e-02,	-2.77191e-02	
402	6.367955e+07	-1.52535e-02,	-2.78219e-02	

Index   frequency       v_v1#branch                     
--------------------------------------------------------------------------------
403	6.397348e+07	-1.54155e-02,	-2.79246e-02	
404	6.426877e+07	-1.55793e-02,	-2.80271e-02	
405	6.456542e+07	-1.57449e-02,	-2.81294e-02	
406	6.486344e+07	-1.59125e-02,	-2.82315e-02	
407	6.516284e+07	-1.60818e-02,	-2.83333e-02	
408	6.546362e+07	-1.62531e-02,	-2.84349e-02	
409	6.576578e+07	-1.64264e-02,	-2.85362e-02	
410	6.606934e+07	-1.66015e-02,	-2.86372e-02	
411	6.637431e+07	-1.67786e-02,	-2.87379e-02	
412	6.668068e+07	-1.69578e-02,	-2.88383e-02	
413	6.698846e+07	-1.71389e-02,	-2.89383e-02	
414	6.729767e+07	-1.73220e-02,	-2.90379e-02	
415	6.760830e+07	-1.75072e-02,	-2.91371e-02	
416	6.792036e+07	-1.76944e-02,	-2.92359e-02	
417	6.823387e+07	-1.78838e-02,	-2.93343e-02	
418	6.854882e+07	-1.80752e-02,	-2.94321e-02	
419	6.886523e+07	-1.82688e-02,	-2.95295e-02	
420	6.918310e+07	-1.84645e-02,	-2.96263e-02	
421	6.950243e+07	-1.86624e-02,	-2.97226e-02	
422	6.982324e+07	-1.88625e-02,	-2.98183e-02	
423	7.014553e+07	-1.90649e-02,	-2.99134e-02	
424	7.046931e+07	-1.92694e-02,	-3.00079e-02	
425	7.079458e+07	-1.94763e-02,	-3.01016e-02	
426	7.112135e+07	-1.96854e-02,	-3.01947e-02	
427	7.144963e+07	-1.98968e-02,	-3.02871e-02	
428	7.177943e+07	-2.01105e-02,	-3.03786e-02	
429	7.211075e+07	-2.03266e-02,	-3.04694e-02	
430	7.244360e+07	-2.05451e-02,	-3.05594e-02	
431	7.277798e+07	-2.07659e-02,	-3.06485e-02	
432	7.311391e+07	-2.09892e-02,	-3.07366e-02	
433	7.345139e+07	-2.12149e-02,	-3.08239e-02	
434	7.379042e+07	-2.14431e-02,	-3.09102e-02	
435	7.413102e+07	-2.16737e-02,	-3.09954e-02	
436	7.447320e+07	-2.19068e-02,	-3.10796e-02	
437	7.481695e+07	-2.21425e-02,	-3.11627e-02	
438	7.516229e+07	-2.23807e-02,	-3.12447e-02	
439	7.550922e+07	-2.26214e-02,	-3.13255e-02	
440	7.585776e+07	-2.28648e-02,	-3.14050e-02	
441	7.620790e+07	-2.31107e-02,	-3.14833e-02	
442	7.655966e+07	-2.33592e-02,	-3.15603e-02	
443	7.691304e+07	-2.36104e-02,	-3.16360e-02	
444	7.726806e+07	-2.38642e-02,	-3.17102e-02	
445	7.762471e+07	-2.41207e-02,	-3.17830e-02	
446	7.798301e+07	-2.43799e-02,	-3.18543e-02	
447	7.834296e+07	-2.46418e-02,	-3.19240e-02	
448	7.870458e+07	-2.49065e-02,	-3.19921e-02	
449	7.906786e+07	-2.51739e-02,	-3.20586e-02	
450	7.943282e+07	-2.54440e-02,	-3.21233e-02	
451	7.979947e+07	-2.57169e-02,	-3.21863e-02	
452	8.016781e+07	-2.59926e-02,	-3.22474e-02	
453	8.053784e+07	-2.62711e-02,	-3.23067e-02	
454	8.090959e+07	-2.65524e-02,	-3.23640e-02	
455	8.128305e+07	-2.68366e-02,	-3.24193e-02	
456	8.165824e+07	-2.71235e-02,	-3.24726e-02	
457	8.203515e+07	-2.74134e-02,	-3.25237e-02	
458	8.241381e+07	-2.77061e-02,	-3.25726e-02	
459	8.279422e+07	-2.80017e-02,	-3.26193e-02	
460	8.317638e+07	-2.83001e-02,	-3.26636e-02	

Index   frequency       v_v1#branch                     
--------------------------------------------------------------------------------
461	8.356030e+07	-2.86015e-02,	-3.27055e-02	
462	8.394600e+07	-2.89057e-02,	-3.27450e-02	
463	8.433348e+07	-2.92129e-02,	-3.27820e-02	
464	8.472274e+07	-2.95229e-02,	-3.28163e-02	
465	8.511380e+07	-2.98359e-02,	-3.28480e-02	
466	8.550667e+07	-3.01517e-02,	-3.28769e-02	
467	8.590135e+07	-3.04705e-02,	-3.29029e-02	
468	8.629785e+07	-3.07922e-02,	-3.29261e-02	
469	8.669619e+07	-3.11168e-02,	-3.29462e-02	
470	8.709636e+07	-3.14443e-02,	-3.29633e-02	
471	8.749838e+07	-3.17746e-02,	-3.29772e-02	
472	8.790225e+07	-3.21079e-02,	-3.29879e-02	
473	8.830799e+07	-3.24441e-02,	-3.29953e-02	
474	8.871560e+07	-3.27831e-02,	-3.29993e-02	
475	8.912509e+07	-3.31250e-02,	-3.29998e-02	
476	8.953648e+07	-3.34697e-02,	-3.29967e-02	
477	8.994976e+07	-3.38173e-02,	-3.29899e-02	
478	9.036495e+07	-3.41677e-02,	-3.29793e-02	
479	9.078205e+07	-3.45209e-02,	-3.29649e-02	
480	9.120108e+07	-3.48768e-02,	-3.29466e-02	
481	9.162205e+07	-3.52355e-02,	-3.29242e-02	
482	9.204496e+07	-3.55969e-02,	-3.28977e-02	
483	9.246982e+07	-3.59609e-02,	-3.28669e-02	
484	9.289664e+07	-3.63277e-02,	-3.28318e-02	
485	9.332543e+07	-3.66970e-02,	-3.27923e-02	
486	9.375620e+07	-3.70689e-02,	-3.27482e-02	
487	9.418896e+07	-3.74434e-02,	-3.26995e-02	
488	9.462372e+07	-3.78203e-02,	-3.26460e-02	
489	9.506048e+07	-3.81998e-02,	-3.25878e-02	
490	9.549926e+07	-3.85816e-02,	-3.25245e-02	
491	9.594006e+07	-3.89657e-02,	-3.24563e-02	
492	9.638290e+07	-3.93522e-02,	-3.23829e-02	
493	9.682779e+07	-3.97409e-02,	-3.23042e-02	
494	9.727472e+07	-4.01317e-02,	-3.22202e-02	
495	9.772372e+07	-4.05247e-02,	-3.21307e-02	
496	9.817479e+07	-4.09197e-02,	-3.20356e-02	
497	9.862795e+07	-4.13166e-02,	-3.19348e-02	
498	9.908319e+07	-4.17155e-02,	-3.18283e-02	
499	9.954054e+07	-4.21161e-02,	-3.17159e-02	
500	1.000000e+08	-4.25185e-02,	-3.15974e-02	
501	1.004616e+08	-4.29225e-02,	-3.14729e-02	
502	1.009253e+08	-4.33280e-02,	-3.13422e-02	
503	1.013911e+08	-4.37350e-02,	-3.12051e-02	
504	1.018591e+08	-4.41433e-02,	-3.10617e-02	
505	1.023293e+08	-4.45529e-02,	-3.09117e-02	
506	1.028016e+08	-4.49635e-02,	-3.07551e-02	
507	1.032761e+08	-4.53752e-02,	-3.05917e-02	
508	1.037528e+08	-4.57878e-02,	-3.04216e-02	
509	1.042317e+08	-4.62012e-02,	-3.02445e-02	
510	1.047129e+08	-4.66152e-02,	-3.00604e-02	
511	1.051962e+08	-4.70297e-02,	-2.98692e-02	
512	1.056818e+08	-4.74447e-02,	-2.96707e-02	
513	1.061696e+08	-4.78598e-02,	-2.94650e-02	
514	1.066596e+08	-4.82750e-02,	-2.92519e-02	
515	1.071519e+08	-4.86902e-02,	-2.90313e-02	
516	1.076465e+08	-4.91052e-02,	-2.88032e-02	
517	1.081434e+08	-4.95198e-02,	-2.85674e-02	
518	1.086426e+08	-4.99339e-02,	-2.83239e-02	

Index   frequency       v_v1#branch                     
--------------------------------------------------------------------------------
519	1.091440e+08	-5.03472e-02,	-2.80726e-02	
520	1.096478e+08	-5.07597e-02,	-2.78135e-02	
521	1.101539e+08	-5.11712e-02,	-2.75465e-02	
522	1.106624e+08	-5.15814e-02,	-2.72715e-02	
523	1.111732e+08	-5.19902e-02,	-2.69884e-02	
524	1.116863e+08	-5.23974e-02,	-2.66972e-02	
525	1.122018e+08	-5.28027e-02,	-2.63979e-02	
526	1.127197e+08	-5.32061e-02,	-2.60905e-02	
527	1.132400e+08	-5.36073e-02,	-2.57748e-02	
528	1.137627e+08	-5.40061e-02,	-2.54508e-02	
529	1.142878e+08	-5.44023e-02,	-2.51186e-02	
530	1.148154e+08	-5.47956e-02,	-2.47780e-02	
531	1.153453e+08	-5.51859e-02,	-2.44292e-02	
532	1.158777e+08	-5.55729e-02,	-2.40720e-02	
533	1.164126e+08	-5.59565e-02,	-2.37065e-02	
534	1.169499e+08	-5.63363e-02,	-2.33327e-02	
535	1.174898e+08	-5.67122e-02,	-2.29506e-02	
536	1.180321e+08	-5.70840e-02,	-2.25602e-02	
537	1.185769e+08	-5.74513e-02,	-2.21615e-02	
538	1.191242e+08	-5.78140e-02,	-2.17546e-02	
539	1.196741e+08	-5.81719e-02,	-2.13396e-02	
540	1.202264e+08	-5.85246e-02,	-2.09164e-02	
541	1.207814e+08	-5.88720e-02,	-2.04851e-02	
542	1.213389e+08	-5.92138e-02,	-2.00458e-02	
543	1.218990e+08	-5.95498e-02,	-1.95986e-02	
544	1.224616e+08	-5.98798e-02,	-1.91436e-02	
545	1.230269e+08	-6.02035e-02,	-1.86808e-02	
546	1.235947e+08	-6.05206e-02,	-1.82103e-02	
547	1.241652e+08	-6.08310e-02,	-1.77323e-02	
548	1.247384e+08	-6.11344e-02,	-1.72469e-02	
549	1.253141e+08	-6.14306e-02,	-1.67541e-02	
550	1.258925e+08	-6.17193e-02,	-1.62542e-02	
551	1.264736e+08	-6.20004e-02,	-1.57473e-02	
552	1.270574e+08	-6.22735e-02,	-1.52336e-02	
553	1.276439e+08	-6.25385e-02,	-1.47131e-02	
554	1.282331e+08	-6.27952e-02,	-1.41861e-02	
555	1.288250e+08	-6.30434e-02,	-1.36527e-02	
556	1.294196e+08	-6.32827e-02,	-1.31132e-02	
557	1.300170e+08	-6.35132e-02,	-1.25677e-02	
558	1.306171e+08	-6.37344e-02,	-1.20164e-02	
559	1.312200e+08	-6.39464e-02,	-1.14596e-02	
560	1.318257e+08	-6.41487e-02,	-1.08975e-02	
561	1.324342e+08	-6.43414e-02,	-1.03303e-02	
562	1.330454e+08	-6.45243e-02,	-9.75816e-03	
563	1.336596e+08	-6.46970e-02,	-9.18143e-03	
564	1.342765e+08	-6.48596e-02,	-8.60032e-03	
565	1.348963e+08	-6.50118e-02,	-8.01509e-03	
566	1.355189e+08	-6.51536e-02,	-7.42601e-03	
567	1.361445e+08	-6.52848e-02,	-6.83333e-03	
568	1.367729e+08	-6.54052e-02,	-6.23733e-03	
[...]
712	2.654606e+08	-2.39959e-02,	3.174786e-02	
713	2.666859e+08	-2.37407e-02,	3.167437e-02	
714	2.679168e+08	-2.34882e-02,	3.159945e-02	
715	2.691535e+08	-2.32383e-02,	3.152315e-02	
716	2.703958e+08	-2.29910e-02,	3.144551e-02	
717	2.716439e+08	-2.27464e-02,	3.136659e-02	
718	2.728978e+08	-2.25043e-02,	3.128642e-02	
719	2.741574e+08	-2.22648e-02,	3.120505e-02	
720	2.754229e+08	-2.20278e-02,	3.112253e-02	
721	2.766942e+08	-2.17934e-02,	3.103888e-02	
722	2.779713e+08	-2.15615e-02,	3.095417e-02	
723	2.792544e+08	-2.13321e-02,	3.086842e-02	
724	2.805434e+08	-2.11051e-02,	3.078167e-02	
725	2.818383e+08	-2.08806e-02,	3.069397e-02	
726	2.831392e+08	-2.06585e-02,	3.060534e-02	
727	2.844461e+08	-2.04388e-02,	3.051583e-02	
728	2.857591e+08	-2.02215e-02,	3.042547e-02	
729	2.870781e+08	-2.00065e-02,	3.033430e-02	
730	2.884032e+08	-1.97939e-02,	3.024234e-02	
731	2.897344e+08	-1.95836e-02,	3.014964e-02	
732	2.910717e+08	-1.93756e-02,	3.005622e-02	
733	2.924152e+08	-1.91699e-02,	2.996211e-02	
734	2.937650e+08	-1.89664e-02,	2.986735e-02	
735	2.951209e+08	-1.87652e-02,	2.977196e-02	
736	2.964831e+08	-1.85661e-02,	2.967597e-02	
737	2.978516e+08	-1.83693e-02,	2.957942e-02	
738	2.992265e+08	-1.81746e-02,	2.948232e-02	
739	3.006076e+08	-1.79821e-02,	2.938471e-02	
740	3.019952e+08	-1.77916e-02,	2.928661e-02	
741	3.033891e+08	-1.76033e-02,	2.918804e-02	
742	3.047895e+08	-1.74171e-02,	2.908904e-02	
743	3.061963e+08	-1.72329e-02,	2.898962e-02	
744	3.076097e+08	-1.70507e-02,	2.888980e-02	
745	3.090295e+08	-1.68706e-02,	2.878962e-02	
746	3.104560e+08	-1.66925e-02,	2.868909e-02	
747	3.118890e+08	-1.65163e-02,	2.858824e-02	
748	3.133286e+08	-1.63421e-02,	2.848708e-02	
749	3.147748e+08	-1.61698e-02,	2.838563e-02	
750	3.162278e+08	-1.59994e-02,	2.828392e-02	

Index   frequency       v_v1#branch                     
--------------------------------------------------------------------------------
751	3.176874e+08	-1.58309e-02,	2.818196e-02	
752	3.191538e+08	-1.56643e-02,	2.807978e-02	
753	3.206269e+08	-1.54996e-02,	2.797739e-02	
754	3.221069e+08	-1.53366e-02,	2.787481e-02	
755	3.235937e+08	-1.51755e-02,	2.777205e-02	
756	3.250873e+08	-1.50162e-02,	2.766914e-02	
757	3.265878e+08	-1.48586e-02,	2.756609e-02	
758	3.280953e+08	-1.47028e-02,	2.746291e-02	
759	3.296097e+08	-1.45487e-02,	2.735962e-02	
760	3.311311e+08	-1.43963e-02,	2.725624e-02	
761	3.326596e+08	-1.42456e-02,	2.715278e-02	
762	3.341950e+08	-1.40966e-02,	2.704926e-02	
763	3.357376e+08	-1.39493e-02,	2.694568e-02	
764	3.372873e+08	-1.38035e-02,	2.684206e-02	
765	3.388442e+08	-1.36594e-02,	2.673842e-02	
766	3.404082e+08	-1.35169e-02,	2.663476e-02	
767	3.419794e+08	-1.33760e-02,	2.653111e-02	
768	3.435579e+08	-1.32367e-02,	2.642746e-02	
769	3.451437e+08	-1.30989e-02,	2.632384e-02	
770	3.467369e+08	-1.29626e-02,	2.622025e-02	
771	3.483373e+08	-1.28278e-02,	2.611671e-02	
772	3.499452e+08	-1.26945e-02,	2.601322e-02	
773	3.515604e+08	-1.25627e-02,	2.590980e-02	
774	3.531832e+08	-1.24324e-02,	2.580645e-02	
775	3.548134e+08	-1.23035e-02,	2.570319e-02	
776	3.564511e+08	-1.21760e-02,	2.560002e-02	
777	3.580964e+08	-1.20499e-02,	2.549695e-02	
778	3.597493e+08	-1.19253e-02,	2.539400e-02	
779	3.614099e+08	-1.18020e-02,	2.529117e-02	
780	3.630781e+08	-1.16800e-02,	2.518846e-02	
781	3.647539e+08	-1.15594e-02,	2.508590e-02	
782	3.664376e+08	-1.14402e-02,	2.498347e-02	
783	3.681290e+08	-1.13222e-02,	2.488120e-02	
784	3.698282e+08	-1.12056e-02,	2.477909e-02	
785	3.715352e+08	-1.10902e-02,	2.467714e-02	
786	3.732502e+08	-1.09761e-02,	2.457537e-02	
787	3.749730e+08	-1.08633e-02,	2.447377e-02	
788	3.767038e+08	-1.07517e-02,	2.437237e-02	
789	3.784426e+08	-1.06413e-02,	2.427115e-02	
790	3.801894e+08	-1.05321e-02,	2.417013e-02	
791	3.819443e+08	-1.04242e-02,	2.406932e-02	
792	3.837072e+08	-1.03174e-02,	2.396871e-02	
793	3.854784e+08	-1.02118e-02,	2.386832e-02	
794	3.872576e+08	-1.01073e-02,	2.376815e-02	
795	3.890451e+08	-1.00040e-02,	2.366820e-02	
796	3.908409e+08	-9.90181e-03,	2.356849e-02	
797	3.926449e+08	-9.80073e-03,	2.346900e-02	
798	3.944573e+08	-9.70076e-03,	2.336976e-02	
799	3.962780e+08	-9.60188e-03,	2.327076e-02	
800	3.981072e+08	-9.50408e-03,	2.317200e-02	
801	3.999447e+08	-9.40734e-03,	2.307350e-02	
802	4.017908e+08	-9.31165e-03,	2.297525e-02	
803	4.036454e+08	-9.21701e-03,	2.287726e-02	
804	4.055085e+08	-9.12339e-03,	2.277954e-02	
805	4.073803e+08	-9.03078e-03,	2.268208e-02	
806	4.092607e+08	-8.93918e-03,	2.258488e-02	
807	4.111497e+08	-8.84857e-03,	2.248796e-02	
808	4.130475e+08	-8.75895e-03,	2.239132e-02	

Index   frequency       v_v1#branch                     
--------------------------------------------------------------------------------
809	4.149540e+08	-8.67029e-03,	2.229496e-02	
810	4.168694e+08	-8.58259e-03,	2.219887e-02	
811	4.187936e+08	-8.49583e-03,	2.210307e-02	
812	4.207266e+08	-8.41001e-03,	2.200756e-02	
813	4.226686e+08	-8.32512e-03,	2.191233e-02	
814	4.246196e+08	-8.24114e-03,	2.181740e-02	
815	4.265795e+08	-8.15807e-03,	2.172276e-02	
816	4.285485e+08	-8.07589e-03,	2.162842e-02	
817	4.305266e+08	-7.99459e-03,	2.153437e-02	
818	4.325138e+08	-7.91416e-03,	2.144063e-02	
819	4.345102e+08	-7.83459e-03,	2.134719e-02	
820	4.365158e+08	-7.75588e-03,	2.125405e-02	
821	4.385307e+08	-7.67801e-03,	2.116121e-02	
822	4.405549e+08	-7.60097e-03,	2.106869e-02	
823	4.425884e+08	-7.52476e-03,	2.097647e-02	
824	4.446313e+08	-7.44936e-03,	2.088456e-02	
825	4.466836e+08	-7.37476e-03,	2.079296e-02	
826	4.487454e+08	-7.30096e-03,	2.070168e-02	
827	4.508167e+08	-7.22795e-03,	2.061071e-02	
828	4.528976e+08	-7.15571e-03,	2.052005e-02	
829	4.549881e+08	-7.08424e-03,	2.042971e-02	
830	4.570882e+08	-7.01353e-03,	2.033969e-02	
831	4.591980e+08	-6.94356e-03,	2.024999e-02	
832	4.613176e+08	-6.87434e-03,	2.016061e-02	
833	4.634469e+08	-6.80586e-03,	2.007154e-02	
834	4.655861e+08	-6.73809e-03,	1.998280e-02	
835	4.677351e+08	-6.67105e-03,	1.989438e-02	
836	4.698941e+08	-6.60471e-03,	1.980628e-02	
837	4.720630e+08	-6.53907e-03,	1.971850e-02	
838	4.742420e+08	-6.47413e-03,	1.963105e-02	
839	4.764310e+08	-6.40987e-03,	1.954392e-02	
840	4.786301e+08	-6.34628e-03,	1.945712e-02	
841	4.808393e+08	-6.28337e-03,	1.937063e-02	
842	4.830588e+08	-6.22111e-03,	1.928448e-02	
843	4.852885e+08	-6.15951e-03,	1.919865e-02	
844	4.875285e+08	-6.09856e-03,	1.911314e-02	
845	4.897788e+08	-6.03824e-03,	1.902796e-02	
846	4.920395e+08	-5.97855e-03,	1.894311e-02	
847	4.943107e+08	-5.91949e-03,	1.885858e-02	
848	4.965923e+08	-5.86105e-03,	1.877438e-02	
849	4.988845e+08	-5.80322e-03,	1.869051e-02	
850	5.011872e+08	-5.74599e-03,	1.860696e-02	
851	5.035006e+08	-5.68936e-03,	1.852374e-02	
852	5.058247e+08	-5.63331e-03,	1.844084e-02	
853	5.081594e+08	-5.57786e-03,	1.835827e-02	
854	5.105050e+08	-5.52297e-03,	1.827602e-02	
855	5.128614e+08	-5.46866e-03,	1.819410e-02	
856	5.152286e+08	-5.41491e-03,	1.811251e-02	
857	5.176068e+08	-5.36172e-03,	1.803124e-02	
858	5.199960e+08	-5.30908e-03,	1.795030e-02	
859	5.223962e+08	-5.25699e-03,	1.786968e-02	
860	5.248075e+08	-5.20543e-03,	1.778938e-02	
861	5.272299e+08	-5.15441e-03,	1.770941e-02	
862	5.296634e+08	-5.10392e-03,	1.762976e-02	
863	5.321083e+08	-5.05394e-03,	1.755044e-02	
864	5.345644e+08	-5.00448e-03,	1.747143e-02	
865	5.370318e+08	-4.95553e-03,	1.739275e-02	
866	5.395106e+08	-4.90709e-03,	1.731440e-02	

Index   frequency       v_v1#branch                     
--------------------------------------------------------------------------------
867	5.420009e+08	-4.85914e-03,	1.723636e-02	
868	5.445027e+08	-4.81169e-03,	1.715864e-02	
869	5.470160e+08	-4.76472e-03,	1.708125e-02	
870	5.495409e+08	-4.71824e-03,	1.700417e-02	
871	5.520774e+08	-4.67223e-03,	1.692741e-02	
872	5.546257e+08	-4.62669e-03,	1.685098e-02	
873	5.571857e+08	-4.58162e-03,	1.677485e-02	
874	5.597576e+08	-4.53701e-03,	1.669905e-02	
875	5.623413e+08	-4.49286e-03,	1.662356e-02	
876	5.649370e+08	-4.44916e-03,	1.654839e-02	
877	5.675446e+08	-4.40590e-03,	1.647354e-02	
878	5.701643e+08	-4.36308e-03,	1.639899e-02	
879	5.727960e+08	-4.32070e-03,	1.632477e-02	
880	5.754399e+08	-4.27876e-03,	1.625085e-02	
881	5.780960e+08	-4.23724e-03,	1.617725e-02	
882	5.807644e+08	-4.19614e-03,	1.610396e-02	
883	5.834451e+08	-4.15546e-03,	1.603098e-02	
884	5.861382e+08	-4.11519e-03,	1.595831e-02	
885	5.888437e+08	-4.07533e-03,	1.588595e-02	
886	5.915616e+08	-4.03587e-03,	1.581389e-02	
887	5.942922e+08	-3.99681e-03,	1.574215e-02	
888	5.970353e+08	-3.95815e-03,	1.567071e-02	
889	5.997911e+08	-3.91988e-03,	1.559958e-02	
890	6.025596e+08	-3.88200e-03,	1.552875e-02	
891	6.053409e+08	-3.84450e-03,	1.545823e-02	
892	6.081350e+08	-3.80738e-03,	1.538801e-02	
893	6.109420e+08	-3.77063e-03,	1.531809e-02	
894	6.137620e+08	-3.73425e-03,	1.524847e-02	
895	6.165950e+08	-3.69824e-03,	1.517916e-02	
896	6.194411e+08	-3.66259e-03,	1.511014e-02	
897	6.223003e+08	-3.62730e-03,	1.504142e-02	
898	6.251727e+08	-3.59236e-03,	1.497300e-02	
899	6.280584e+08	-3.55778e-03,	1.490488e-02	
900	6.309573e+08	-3.52354e-03,	1.483705e-02	
901	6.338697e+08	-3.48964e-03,	1.476952e-02	
902	6.367955e+08	-3.45609e-03,	1.470228e-02	
903	6.397348e+08	-3.42287e-03,	1.463534e-02	
904	6.426877e+08	-3.38998e-03,	1.456869e-02	
905	6.456542e+08	-3.35742e-03,	1.450233e-02	
906	6.486344e+08	-3.32519e-03,	1.443626e-02	
907	6.516284e+08	-3.29328e-03,	1.437048e-02	
908	6.546362e+08	-3.26168e-03,	1.430498e-02	
909	6.576578e+08	-3.23041e-03,	1.423978e-02	
910	6.606934e+08	-3.19944e-03,	1.417486e-02	
911	6.637431e+08	-3.16878e-03,	1.411022e-02	
912	6.668068e+08	-3.13843e-03,	1.404588e-02	
913	6.698846e+08	-3.10838e-03,	1.398181e-02	
914	6.729767e+08	-3.07863e-03,	1.391803e-02	
915	6.760830e+08	-3.04917e-03,	1.385452e-02	
916	6.792036e+08	-3.02001e-03,	1.379130e-02	
917	6.823387e+08	-2.99113e-03,	1.372836e-02	
918	6.854882e+08	-2.96254e-03,	1.366569e-02	
919	6.886523e+08	-2.93424e-03,	1.360331e-02	
920	6.918310e+08	-2.90621e-03,	1.354120e-02	
921	6.950243e+08	-2.87847e-03,	1.347936e-02	
922	6.982324e+08	-2.85099e-03,	1.341780e-02	
923	7.014553e+08	-2.82379e-03,	1.335651e-02	
924	7.046931e+08	-2.79686e-03,	1.329550e-02	

Index   frequency       v_v1#branch                     
--------------------------------------------------------------------------------
925	7.079458e+08	-2.77019e-03,	1.323475e-02	
926	7.112135e+08	-2.74379e-03,	1.317428e-02	
927	7.144963e+08	-2.71765e-03,	1.311408e-02	
928	7.177943e+08	-2.69176e-03,	1.305414e-02	
929	7.211075e+08	-2.66613e-03,	1.299447e-02	
930	7.244360e+08	-2.64075e-03,	1.293507e-02	
931	7.277798e+08	-2.61562e-03,	1.287593e-02	
932	7.311391e+08	-2.59074e-03,	1.281706e-02	
933	7.345139e+08	-2.56610e-03,	1.275844e-02	
934	7.379042e+08	-2.54171e-03,	1.270010e-02	
935	7.413102e+08	-2.51755e-03,	1.264201e-02	
936	7.447320e+08	-2.49363e-03,	1.258418e-02	
937	7.481695e+08	-2.46995e-03,	1.252661e-02	
938	7.516229e+08	-2.44650e-03,	1.246930e-02	
939	7.550922e+08	-2.42327e-03,	1.241225e-02	
940	7.585776e+08	-2.40028e-03,	1.235545e-02	
941	7.620790e+08	-2.37751e-03,	1.229891e-02	
942	7.655966e+08	-2.35496e-03,	1.224262e-02	
943	7.691304e+08	-2.33264e-03,	1.218658e-02	
944	7.726806e+08	-2.31053e-03,	1.213080e-02	
945	7.762471e+08	-2.28863e-03,	1.207526e-02	
946	7.798301e+08	-2.26695e-03,	1.201998e-02	
947	7.834296e+08	-2.24549e-03,	1.196494e-02	
948	7.870458e+08	-2.22423e-03,	1.191016e-02	
949	7.906786e+08	-2.20318e-03,	1.185562e-02	
950	7.943282e+08	-2.18233e-03,	1.180132e-02	
951	7.979947e+08	-2.16169e-03,	1.174727e-02	
952	8.016781e+08	-2.14124e-03,	1.169347e-02	
953	8.053784e+08	-2.12100e-03,	1.163990e-02	
954	8.090959e+08	-2.10095e-03,	1.158658e-02	
955	8.128305e+08	-2.08110e-03,	1.153350e-02	
956	8.165824e+08	-2.06144e-03,	1.148066e-02	
957	8.203515e+08	-2.04197e-03,	1.142806e-02	
958	8.241381e+08	-2.02269e-03,	1.137569e-02	
959	8.279422e+08	-2.00360e-03,	1.132356e-02	
960	8.317638e+08	-1.98469e-03,	1.127167e-02	
961	8.356030e+08	-1.96597e-03,	1.122001e-02	
962	8.394600e+08	-1.94742e-03,	1.116859e-02	
963	8.433348e+08	-1.92906e-03,	1.111740e-02	
964	8.472274e+08	-1.91087e-03,	1.106644e-02	
965	8.511380e+08	-1.89286e-03,	1.101571e-02	
966	8.550667e+08	-1.87502e-03,	1.096521e-02	
967	8.590135e+08	-1.85736e-03,	1.091494e-02	
968	8.629785e+08	-1.83987e-03,	1.086490e-02	
969	8.669619e+08	-1.82254e-03,	1.081509e-02	
970	8.709636e+08	-1.80538e-03,	1.076550e-02	
971	8.749838e+08	-1.78839e-03,	1.071614e-02	
972	8.790225e+08	-1.77156e-03,	1.066700e-02	
973	8.830799e+08	-1.75490e-03,	1.061808e-02	
974	8.871560e+08	-1.73839e-03,	1.056939e-02	
975	8.912509e+08	-1.72205e-03,	1.052091e-02	
976	8.953648e+08	-1.70586e-03,	1.047266e-02	
977	8.994976e+08	-1.68982e-03,	1.042463e-02	
978	9.036495e+08	-1.67394e-03,	1.037681e-02	
979	9.078205e+08	-1.65822e-03,	1.032921e-02	
980	9.120108e+08	-1.64264e-03,	1.028183e-02	
981	9.162205e+08	-1.62722e-03,	1.023467e-02	
982	9.204496e+08	-1.61194e-03,	1.018772e-02	

Index   frequency       v_v1#branch                     
--------------------------------------------------------------------------------
983	9.246982e+08	-1.59681e-03,	1.014098e-02	
984	9.289664e+08	-1.58182e-03,	1.009445e-02	
985	9.332543e+08	-1.56698e-03,	1.004814e-02	
986	9.375620e+08	-1.55228e-03,	1.000204e-02	
987	9.418896e+08	-1.53772e-03,	9.956146e-03	
988	9.462372e+08	-1.52330e-03,	9.910463e-03	
989	9.506048e+08	-1.50902e-03,	9.864988e-03	
990	9.549926e+08	-1.49487e-03,	9.819720e-03	
991	9.594006e+08	-1.48086e-03,	9.774658e-03	
992	9.638290e+08	-1.46699e-03,	9.729802e-03	
993	9.682779e+08	-1.45324e-03,	9.685151e-03	
994	9.727472e+08	-1.43963e-03,	9.640703e-03	
995	9.772372e+08	-1.42615e-03,	9.596458e-03	
996	9.817479e+08	-1.41280e-03,	9.552414e-03	
997	9.862795e+08	-1.39957e-03,	9.508572e-03	
998	9.908319e+08	-1.38647e-03,	9.464929e-03	
999	9.954054e+08	-1.37350e-03,	9.421486e-03	
1000	1.000000e+09	-1.36065e-03,	9.378241e-03	
1001	1.004616e+09	-1.34792e-03,	9.335194e-03	
1002	1.009253e+09	-1.33531e-03,	9.292343e-03	
1003	1.013911e+09	-1.32283e-03,	9.249687e-03	
1004	1.018591e+09	-1.31046e-03,	9.207227e-03	
1005	1.023293e+09	-1.29821e-03,	9.164960e-03	
1006	1.028016e+09	-1.28608e-03,	9.122887e-03	
1007	1.032761e+09	-1.27406e-03,	9.081005e-03	
1008	1.037528e+09	-1.26216e-03,	9.039315e-03	
1009	1.042317e+09	-1.25037e-03,	8.997816e-03	
1010	1.047129e+09	-1.23869e-03,	8.956506e-03	
1011	1.051962e+09	-1.22712e-03,	8.915385e-03	
1012	1.056818e+09	-1.21566e-03,	8.874452e-03	
1013	1.061696e+09	-1.20431e-03,	8.833706e-03	
1014	1.066596e+09	-1.19307e-03,	8.793147e-03	
1015	1.071519e+09	-1.18194e-03,	8.752773e-03	
1016	1.076465e+09	-1.17091e-03,	8.712583e-03	
1017	1.081434e+09	-1.15999e-03,	8.672578e-03	
1018	1.086426e+09	-1.14917e-03,	8.632755e-03	
1019	1.091440e+09	-1.13845e-03,	8.593115e-03	
1020	1.096478e+09	-1.12783e-03,	8.553656e-03	
1021	1.101539e+09	-1.11732e-03,	8.514377e-03	
1022	1.106624e+09	-1.10690e-03,	8.475278e-03	
1023	1.111732e+09	-1.09659e-03,	8.436358e-03	
1024	1.116863e+09	-1.08637e-03,	8.397617e-03	
1025	1.122018e+09	-1.07624e-03,	8.359052e-03	
1026	1.127197e+09	-1.06622e-03,	8.320665e-03	
1027	1.132400e+09	-1.05628e-03,	8.282452e-03	
1028	1.137627e+09	-1.04645e-03,	8.244415e-03	
1029	1.142878e+09	-1.03670e-03,	8.206552e-03	
1030	1.148154e+09	-1.02705e-03,	8.168863e-03	
1031	1.153453e+09	-1.01749e-03,	8.131346e-03	
1032	1.158777e+09	-1.00801e-03,	8.094001e-03	
1033	1.164126e+09	-9.98632e-04,	8.056827e-03	
1034	1.169499e+09	-9.89339e-04,	8.019823e-03	
1035	1.174898e+09	-9.80133e-04,	7.982988e-03	
1036	1.180321e+09	-9.71014e-04,	7.946323e-03	
1037	1.185769e+09	-9.61981e-04,	7.909825e-03	
1038	1.191242e+09	-9.53033e-04,	7.873495e-03	
1039	1.196741e+09	-9.44170e-04,	7.837331e-03	
1040	1.202264e+09	-9.35390e-04,	7.801333e-03	

Index   frequency       v_v1#branch                     
--------------------------------------------------------------------------------
1041	1.207814e+09	-9.26693e-04,	7.765500e-03	
1042	1.213389e+09	-9.18078e-04,	7.729831e-03	
1043	1.218990e+09	-9.09544e-04,	7.694325e-03	
1044	1.224616e+09	-9.01091e-04,	7.658983e-03	
1045	1.230269e+09	-8.92717e-04,	7.623802e-03	
1046	1.235947e+09	-8.84422e-04,	7.588782e-03	
1047	1.241652e+09	-8.76204e-04,	7.553924e-03	
1048	1.247384e+09	-8.68065e-04,	7.519224e-03	
1049	1.253141e+09	-8.60002e-04,	7.484684e-03	
1050	1.258925e+09	-8.52014e-04,	7.450303e-03	
1051	1.264736e+09	-8.44102e-04,	7.416079e-03	
1052	1.270574e+09	-8.36264e-04,	7.382012e-03	
1053	1.276439e+09	-8.28500e-04,	7.348101e-03	
1054	1.282331e+09	-8.20809e-04,	7.314346e-03	
1055	1.288250e+09	-8.13190e-04,	7.280745e-03	
1056	1.294196e+09	-8.05642e-04,	7.247299e-03	
1057	1.300170e+09	-7.98166e-04,	7.214006e-03	
1058	1.306171e+09	-7.90760e-04,	7.180866e-03	
1059	1.312200e+09	-7.83423e-04,	7.147877e-03	
1060	1.318257e+09	-7.76155e-04,	7.115041e-03	
1061	1.324342e+09	-7.68955e-04,	7.082354e-03	
1062	1.330454e+09	-7.61823e-04,	7.049818e-03	
1063	1.336596e+09	-7.54758e-04,	7.017431e-03	
1064	1.342765e+09	-7.47758e-04,	6.985192e-03	
1065	1.348963e+09	-7.40825e-04,	6.953102e-03	
1066	1.355189e+09	-7.33956e-04,	6.921159e-03	
1067	1.361445e+09	-7.27152e-04,	6.889362e-03	
1068	1.367729e+09	-7.20412e-04,	6.857711e-03	
1069	1.374042e+09	-7.13735e-04,	6.826206e-03	
1070	1.380384e+09	-7.07120e-04,	6.794845e-03	
1071	1.386756e+09	-7.00567e-04,	6.763627e-03	
1072	1.393157e+09	-6.94076e-04,	6.732554e-03	
1073	1.399587e+09	-6.87645e-04,	6.701622e-03	
1074	1.406048e+09	-6.81275e-04,	6.670833e-03	
1075	1.412538e+09	-6.74964e-04,	6.640185e-03	
1076	1.419058e+09	-6.68712e-04,	6.609678e-03	
1077	1.425608e+09	-6.62519e-04,	6.579311e-03	
1078	1.432188e+09	-6.56384e-04,	6.549083e-03	
1079	1.438799e+09	-6.50306e-04,	6.518994e-03	
1080	1.445440e+09	-6.44285e-04,	6.489043e-03	
1081	1.452112e+09	-6.38320e-04,	6.459229e-03	
1082	1.458814e+09	-6.32410e-04,	6.429553e-03	
1083	1.465548e+09	-6.26557e-04,	6.400012e-03	
1084	1.472313e+09	-6.20757e-04,	6.370608e-03	
1085	1.479108e+09	-6.15012e-04,	6.341338e-03	
1086	1.485936e+09	-6.09321e-04,	6.312203e-03	
1087	1.492794e+09	-6.03683e-04,	6.283201e-03	
1088	1.499685e+09	-5.98097e-04,	6.254333e-03	
1089	1.506607e+09	-5.92563e-04,	6.225597e-03	
1090	1.513561e+09	-5.87082e-04,	6.196993e-03	
1091	1.520548e+09	-5.81651e-04,	6.168520e-03	
1092	1.527566e+09	-5.76271e-04,	6.140178e-03	
1093	1.534617e+09	-5.70941e-04,	6.111966e-03	
1094	1.541700e+09	-5.65661e-04,	6.083884e-03	
1095	1.548817e+09	-5.60430e-04,	6.055931e-03	
1096	1.555966e+09	-5.55248e-04,	6.028106e-03	
1097	1.563148e+09	-5.50114e-04,	6.000409e-03	
1098	1.570363e+09	-5.45028e-04,	5.972839e-03	

Index   frequency       v_v1#branch                     
--------------------------------------------------------------------------------
1099	1.577611e+09	-5.39990e-04,	5.945396e-03	
1100	1.584893e+09	-5.34998e-04,	5.918078e-03	
1101	1.592209e+09	-5.30053e-04,	5.890887e-03	
1102	1.599558e+09	-5.25154e-04,	5.863820e-03	
1103	1.606941e+09	-5.20301e-04,	5.836877e-03	
1104	1.614359e+09	-5.15493e-04,	5.810058e-03	
1105	1.621810e+09	-5.10729e-04,	5.783362e-03	
1106	1.629296e+09	-5.06010e-04,	5.756789e-03	
1107	1.636817e+09	-5.01335e-04,	5.730338e-03	
1108	1.644372e+09	-4.96703e-04,	5.704009e-03	
1109	1.651962e+09	-4.92115e-04,	5.677800e-03	
1110	1.659587e+09	-4.87569e-04,	5.651712e-03	
1111	1.667247e+09	-4.83066e-04,	5.625743e-03	
1112	1.674943e+09	-4.78604e-04,	5.599894e-03	
1113	1.682674e+09	-4.74184e-04,	5.574164e-03	
1114	1.690441e+09	-4.69805e-04,	5.548551e-03	
1115	1.698244e+09	-4.65467e-04,	5.523057e-03	
1116	1.706082e+09	-4.61169e-04,	5.497679e-03	
1117	1.713957e+09	-4.56911e-04,	5.472418e-03	
1118	1.721869e+09	-4.52693e-04,	5.447273e-03	
1119	1.729816e+09	-4.48514e-04,	5.422244e-03	
1120	1.737801e+09	-4.44373e-04,	5.397330e-03	
1121	1.745822e+09	-4.40271e-04,	5.372530e-03	
1122	1.753881e+09	-4.36208e-04,	5.347844e-03	
1123	1.761976e+09	-4.32182e-04,	5.323271e-03	
1124	1.770109e+09	-4.28193e-04,	5.298811e-03	
1125	1.778279e+09	-4.24242e-04,	5.274464e-03	
1126	1.786488e+09	-4.20327e-04,	5.250228e-03	
1127	1.794734e+09	-4.16448e-04,	5.226104e-03	

CPU time since last call: 0.049 seconds.

Total CPU time: 0.049 seconds.

Current dynamic memory usage = 0 bytes,
Dynamic memory limit = 8796093017962.878906 MB.

