
Circuit: * spicenetlist

Doing analysis at TEMP = 0.000000 and TNOM = 27.000000

Warning: can't parse 'antenna': ignored
Warning: can't parse 'source': ignored
Warning: can't parse 'v_v1#branch': ignored


No. of Data Rows : 1128
                                 * spicenetlist
                                 AC Analysis  Sun Dec  3 20:40:02  2017
--------------------------------------------------------------------------------
Index   frequency       vm(antenna)     vm(source)      
--------------------------------------------------------------------------------
0	1.000000e+07	3.300797e+00	3.300000e+00	
1	1.004616e+07	3.300805e+00	3.300000e+00	
2	1.009253e+07	3.300812e+00	3.300000e+00	
3	1.013911e+07	3.300820e+00	3.300000e+00	
4	1.018591e+07	3.300827e+00	3.300000e+00	
5	1.023293e+07	3.300835e+00	3.300000e+00	
6	1.028016e+07	3.300843e+00	3.300000e+00	
7	1.032761e+07	3.300850e+00	3.300000e+00	
8	1.037528e+07	3.300858e+00	3.300000e+00	
9	1.042317e+07	3.300866e+00	3.300000e+00	
10	1.047129e+07	3.300874e+00	3.300000e+00	
11	1.051962e+07	3.300882e+00	3.300000e+00	
12	1.056818e+07	3.300891e+00	3.300000e+00	
13	1.061696e+07	3.300899e+00	3.300000e+00	
14	1.066596e+07	3.300907e+00	3.300000e+00	
15	1.071519e+07	3.300916e+00	3.300000e+00	
16	1.076465e+07	3.300924e+00	3.300000e+00	
17	1.081434e+07	3.300933e+00	3.300000e+00	
18	1.086426e+07	3.300941e+00	3.300000e+00	
19	1.091440e+07	3.300950e+00	3.300000e+00	
20	1.096478e+07	3.300959e+00	3.300000e+00	
21	1.101539e+07	3.300968e+00	3.300000e+00	
22	1.106624e+07	3.300977e+00	3.300000e+00	
23	1.111732e+07	3.300986e+00	3.300000e+00	
24	1.116863e+07	3.300995e+00	3.300000e+00	
25	1.122018e+07	3.301004e+00	3.300000e+00	
26	1.127197e+07	3.301013e+00	3.300000e+00	
27	1.132400e+07	3.301023e+00	3.300000e+00	
28	1.137627e+07	3.301032e+00	3.300000e+00	
29	1.142878e+07	3.301042e+00	3.300000e+00	
30	1.148154e+07	3.301051e+00	3.300000e+00	
31	1.153453e+07	3.301061e+00	3.300000e+00	
32	1.158777e+07	3.301071e+00	3.300000e+00	
33	1.164126e+07	3.301081e+00	3.300000e+00	
34	1.169499e+07	3.301091e+00	3.300000e+00	
35	1.174898e+07	3.301101e+00	3.300000e+00	
36	1.180321e+07	3.301111e+00	3.300000e+00	
37	1.185769e+07	3.301121e+00	3.300000e+00	
38	1.191242e+07	3.301132e+00	3.300000e+00	
39	1.196741e+07	3.301142e+00	3.300000e+00	
40	1.202264e+07	3.301153e+00	3.300000e+00	
41	1.207814e+07	3.301163e+00	3.300000e+00	
42	1.213389e+07	3.301174e+00	3.300000e+00	
43	1.218990e+07	3.301185e+00	3.300000e+00	
44	1.224616e+07	3.301196e+00	3.300000e+00	
45	1.230269e+07	3.301207e+00	3.300000e+00	
46	1.235947e+07	3.301218e+00	3.300000e+00	
47	1.241652e+07	3.301229e+00	3.300000e+00	
48	1.247384e+07	3.301241e+00	3.300000e+00	
49	1.253141e+07	3.301252e+00	3.300000e+00	
50	1.258925e+07	3.301264e+00	3.300000e+00	
51	1.264736e+07	3.301276e+00	3.300000e+00	
52	1.270574e+07	3.301287e+00	3.300000e+00	
53	1.276439e+07	3.301299e+00	3.300000e+00	
54	1.282331e+07	3.301311e+00	3.300000e+00	

Index   frequency       vm(antenna)     vm(source)      
--------------------------------------------------------------------------------
55	1.288250e+07	3.301323e+00	3.300000e+00	
56	1.294196e+07	3.301336e+00	3.300000e+00	
57	1.300170e+07	3.301348e+00	3.300000e+00	
58	1.306171e+07	3.301361e+00	3.300000e+00	
59	1.312200e+07	3.301373e+00	3.300000e+00	
60	1.318257e+07	3.301386e+00	3.300000e+00	
61	1.324342e+07	3.301399e+00	3.300000e+00	
62	1.330454e+07	3.301412e+00	3.300000e+00	
63	1.336596e+07	3.301425e+00	3.300000e+00	
64	1.342765e+07	3.301438e+00	3.300000e+00	
65	1.348963e+07	3.301451e+00	3.300000e+00	
66	1.355189e+07	3.301465e+00	3.300000e+00	
67	1.361445e+07	3.301478e+00	3.300000e+00	
68	1.367729e+07	3.301492e+00	3.300000e+00	
69	1.374042e+07	3.301506e+00	3.300000e+00	
70	1.380384e+07	3.301520e+00	3.300000e+00	
71	1.386756e+07	3.301534e+00	3.300000e+00	
72	1.393157e+07	3.301548e+00	3.300000e+00	
73	1.399587e+07	3.301562e+00	3.300000e+00	
74	1.406048e+07	3.301577e+00	3.300000e+00	
75	1.412538e+07	3.301591e+00	3.300000e+00	
76	1.419058e+07	3.301606e+00	3.300000e+00	
77	1.425608e+07	3.301621e+00	3.300000e+00	
78	1.432188e+07	3.301636e+00	3.300000e+00	
79	1.438799e+07	3.301651e+00	3.300000e+00	
80	1.445440e+07	3.301666e+00	3.300000e+00	
81	1.452112e+07	3.301682e+00	3.300000e+00	
82	1.458814e+07	3.301697e+00	3.300000e+00	
83	1.465548e+07	3.301713e+00	3.300000e+00	
84	1.472313e+07	3.301729e+00	3.300000e+00	
85	1.479108e+07	3.301745e+00	3.300000e+00	
86	1.485936e+07	3.301761e+00	3.300000e+00	
87	1.492794e+07	3.301777e+00	3.300000e+00	
88	1.499685e+07	3.301794e+00	3.300000e+00	
89	1.506607e+07	3.301810e+00	3.300000e+00	
90	1.513561e+07	3.301827e+00	3.300000e+00	
91	1.520548e+07	3.301844e+00	3.300000e+00	
92	1.527566e+07	3.301861e+00	3.300000e+00	
93	1.534617e+07	3.301878e+00	3.300000e+00	
94	1.541700e+07	3.301896e+00	3.300000e+00	
95	1.548817e+07	3.301913e+00	3.300000e+00	
96	1.555966e+07	3.301931e+00	3.300000e+00	
97	1.563148e+07	3.301949e+00	3.300000e+00	
98	1.570363e+07	3.301967e+00	3.300000e+00	
99	1.577611e+07	3.301985e+00	3.300000e+00	
100	1.584893e+07	3.302003e+00	3.300000e+00	
101	1.592209e+07	3.302022e+00	3.300000e+00	
102	1.599558e+07	3.302041e+00	3.300000e+00	
103	1.606941e+07	3.302059e+00	3.300000e+00	
104	1.614359e+07	3.302078e+00	3.300000e+00	
105	1.621810e+07	3.302098e+00	3.300000e+00	
106	1.629296e+07	3.302117e+00	3.300000e+00	
107	1.636817e+07	3.302137e+00	3.300000e+00	
108	1.644372e+07	3.302156e+00	3.300000e+00	
109	1.651962e+07	3.302176e+00	3.300000e+00	
110	1.659587e+07	3.302197e+00	3.300000e+00	
111	1.667247e+07	3.302217e+00	3.300000e+00	
112	1.674943e+07	3.302237e+00	3.300000e+00	

Index   frequency       vm(antenna)     vm(source)      
--------------------------------------------------------------------------------
113	1.682674e+07	3.302258e+00	3.300000e+00	
114	1.690441e+07	3.302279e+00	3.300000e+00	
115	1.698244e+07	3.302300e+00	3.300000e+00	
116	1.706082e+07	3.302321e+00	3.300000e+00	
117	1.713957e+07	3.302343e+00	3.300000e+00	
118	1.721869e+07	3.302365e+00	3.300000e+00	
119	1.729816e+07	3.302386e+00	3.300000e+00	
120	1.737801e+07	3.302409e+00	3.300000e+00	
121	1.745822e+07	3.302431e+00	3.300000e+00	
122	1.753881e+07	3.302453e+00	3.300000e+00	
123	1.761976e+07	3.302476e+00	3.300000e+00	
124	1.770109e+07	3.302499e+00	3.300000e+00	
125	1.778279e+07	3.302522e+00	3.300000e+00	
126	1.786488e+07	3.302545e+00	3.300000e+00	
127	1.794734e+07	3.302569e+00	3.300000e+00	
128	1.803018e+07	3.302593e+00	3.300000e+00	
129	1.811340e+07	3.302617e+00	3.300000e+00	
130	1.819701e+07	3.302641e+00	3.300000e+00	
131	1.828100e+07	3.302665e+00	3.300000e+00	
132	1.836538e+07	3.302690e+00	3.300000e+00	
133	1.845015e+07	3.302715e+00	3.300000e+00	
134	1.853532e+07	3.302740e+00	3.300000e+00	
135	1.862087e+07	3.302766e+00	3.300000e+00	
136	1.870682e+07	3.302791e+00	3.300000e+00	
137	1.879317e+07	3.302817e+00	3.300000e+00	
138	1.887991e+07	3.302843e+00	3.300000e+00	
139	1.896706e+07	3.302869e+00	3.300000e+00	
140	1.905461e+07	3.302896e+00	3.300000e+00	
141	1.914256e+07	3.302923e+00	3.300000e+00	
142	1.923092e+07	3.302950e+00	3.300000e+00	
143	1.931968e+07	3.302977e+00	3.300000e+00	
144	1.940886e+07	3.303005e+00	3.300000e+00	
145	1.949845e+07	3.303032e+00	3.300000e+00	
146	1.958845e+07	3.303061e+00	3.300000e+00	
147	1.967886e+07	3.303089e+00	3.300000e+00	
148	1.976970e+07	3.303117e+00	3.300000e+00	
149	1.986095e+07	3.303146e+00	3.300000e+00	
150	1.995262e+07	3.303175e+00	3.300000e+00	
151	2.004472e+07	3.303205e+00	3.300000e+00	
152	2.013724e+07	3.303234e+00	3.300000e+00	
153	2.023019e+07	3.303264e+00	3.300000e+00	
154	2.032357e+07	3.303295e+00	3.300000e+00	
155	2.041738e+07	3.303325e+00	3.300000e+00	
156	2.051162e+07	3.303356e+00	3.300000e+00	
157	2.060630e+07	3.303387e+00	3.300000e+00	
158	2.070141e+07	3.303418e+00	3.300000e+00	
159	2.079697e+07	3.303450e+00	3.300000e+00	
160	2.089296e+07	3.303482e+00	3.300000e+00	
161	2.098940e+07	3.303514e+00	3.300000e+00	
162	2.108628e+07	3.303547e+00	3.300000e+00	
163	2.118361e+07	3.303579e+00	3.300000e+00	
164	2.128139e+07	3.303613e+00	3.300000e+00	
165	2.137962e+07	3.303646e+00	3.300000e+00	
166	2.147830e+07	3.303680e+00	3.300000e+00	
167	2.157744e+07	3.303714e+00	3.300000e+00	
168	2.167704e+07	3.303748e+00	3.300000e+00	
169	2.177710e+07	3.303783e+00	3.300000e+00	
170	2.187762e+07	3.303818e+00	3.300000e+00	

Index   frequency       vm(antenna)     vm(source)      
--------------------------------------------------------------------------------
171	2.197860e+07	3.303853e+00	3.300000e+00	
172	2.208005e+07	3.303889e+00	3.300000e+00	
173	2.218196e+07	3.303925e+00	3.300000e+00	
174	2.228435e+07	3.303961e+00	3.300000e+00	
175	2.238721e+07	3.303998e+00	3.300000e+00	
176	2.249055e+07	3.304035e+00	3.300000e+00	
177	2.259436e+07	3.304072e+00	3.300000e+00	
178	2.269865e+07	3.304110e+00	3.300000e+00	
179	2.280342e+07	3.304148e+00	3.300000e+00	
180	2.290868e+07	3.304187e+00	3.300000e+00	
181	2.301442e+07	3.304225e+00	3.300000e+00	
182	2.312065e+07	3.304264e+00	3.300000e+00	
183	2.322737e+07	3.304304e+00	3.300000e+00	
184	2.333458e+07	3.304344e+00	3.300000e+00	
185	2.344229e+07	3.304384e+00	3.300000e+00	
186	2.355049e+07	3.304425e+00	3.300000e+00	
187	2.365920e+07	3.304466e+00	3.300000e+00	
188	2.376840e+07	3.304507e+00	3.300000e+00	
189	2.387811e+07	3.304549e+00	3.300000e+00	
190	2.398833e+07	3.304591e+00	3.300000e+00	
191	2.409905e+07	3.304633e+00	3.300000e+00	
192	2.421029e+07	3.304676e+00	3.300000e+00	
193	2.432204e+07	3.304719e+00	3.300000e+00	
194	2.443431e+07	3.304763e+00	3.300000e+00	
195	2.454709e+07	3.304807e+00	3.300000e+00	
196	2.466039e+07	3.304852e+00	3.300000e+00	
197	2.477422e+07	3.304897e+00	3.300000e+00	
198	2.488857e+07	3.304942e+00	3.300000e+00	
199	2.500345e+07	3.304988e+00	3.300000e+00	
200	2.511886e+07	3.305034e+00	3.300000e+00	
201	2.523481e+07	3.305080e+00	3.300000e+00	
202	2.535129e+07	3.305128e+00	3.300000e+00	
203	2.546830e+07	3.305175e+00	3.300000e+00	
204	2.558586e+07	3.305223e+00	3.300000e+00	
205	2.570396e+07	3.305271e+00	3.300000e+00	
206	2.582260e+07	3.305320e+00	3.300000e+00	
207	2.594179e+07	3.305369e+00	3.300000e+00	
208	2.606154e+07	3.305419e+00	3.300000e+00	
209	2.618183e+07	3.305469e+00	3.300000e+00	
210	2.630268e+07	3.305520e+00	3.300000e+00	
211	2.642409e+07	3.305571e+00	3.300000e+00	
212	2.654606e+07	3.305623e+00	3.300000e+00	
213	2.666859e+07	3.305675e+00	3.300000e+00	
214	2.679168e+07	3.305727e+00	3.300000e+00	
215	2.691535e+07	3.305780e+00	3.300000e+00	
216	2.703958e+07	3.305834e+00	3.300000e+00	
217	2.716439e+07	3.305888e+00	3.300000e+00	
218	2.728978e+07	3.305942e+00	3.300000e+00	
219	2.741574e+07	3.305997e+00	3.300000e+00	
220	2.754229e+07	3.306053e+00	3.300000e+00	
221	2.766942e+07	3.306109e+00	3.300000e+00	
222	2.779713e+07	3.306165e+00	3.300000e+00	
223	2.792544e+07	3.306223e+00	3.300000e+00	
224	2.805434e+07	3.306280e+00	3.300000e+00	
225	2.818383e+07	3.306338e+00	3.300000e+00	
226	2.831392e+07	3.306397e+00	3.300000e+00	
227	2.844461e+07	3.306456e+00	3.300000e+00	
228	2.857591e+07	3.306516e+00	3.300000e+00	

Index   frequency       vm(antenna)     vm(source)      
--------------------------------------------------------------------------------
229	2.870781e+07	3.306576e+00	3.300000e+00	
230	2.884032e+07	3.306637e+00	3.300000e+00	
231	2.897344e+07	3.306699e+00	3.300000e+00	
232	2.910717e+07	3.306761e+00	3.300000e+00	
233	2.924152e+07	3.306823e+00	3.300000e+00	
234	2.937650e+07	3.306887e+00	3.300000e+00	
235	2.951209e+07	3.306950e+00	3.300000e+00	
236	2.964831e+07	3.307015e+00	3.300000e+00	
237	2.978516e+07	3.307080e+00	3.300000e+00	
238	2.992265e+07	3.307145e+00	3.300000e+00	
239	3.006076e+07	3.307211e+00	3.300000e+00	
240	3.019952e+07	3.307278e+00	3.300000e+00	
241	3.033891e+07	3.307346e+00	3.300000e+00	
242	3.047895e+07	3.307414e+00	3.300000e+00	
243	3.061963e+07	3.307482e+00	3.300000e+00	
244	3.076097e+07	3.307552e+00	3.300000e+00	
245	3.090295e+07	3.307622e+00	3.300000e+00	
246	3.104560e+07	3.307692e+00	3.300000e+00	
247	3.118890e+07	3.307763e+00	3.300000e+00	
248	3.133286e+07	3.307835e+00	3.300000e+00	
249	3.147748e+07	3.307908e+00	3.300000e+00	
250	3.162278e+07	3.307981e+00	3.300000e+00	
251	3.176874e+07	3.308055e+00	3.300000e+00	
252	3.191538e+07	3.308130e+00	3.300000e+00	
253	3.206269e+07	3.308205e+00	3.300000e+00	
254	3.221069e+07	3.308281e+00	3.300000e+00	
255	3.235937e+07	3.308358e+00	3.300000e+00	
256	3.250873e+07	3.308435e+00	3.300000e+00	
257	3.265878e+07	3.308513e+00	3.300000e+00	
258	3.280953e+07	3.308592e+00	3.300000e+00	
259	3.296097e+07	3.308672e+00	3.300000e+00	
260	3.311311e+07	3.308752e+00	3.300000e+00	
261	3.326596e+07	3.308833e+00	3.300000e+00	
262	3.341950e+07	3.308915e+00	3.300000e+00	
263	3.357376e+07	3.308997e+00	3.300000e+00	
264	3.372873e+07	3.309081e+00	3.300000e+00	
265	3.388442e+07	3.309165e+00	3.300000e+00	
266	3.404082e+07	3.309250e+00	3.300000e+00	
267	3.419794e+07	3.309335e+00	3.300000e+00	
268	3.435579e+07	3.309422e+00	3.300000e+00	
269	3.451437e+07	3.309509e+00	3.300000e+00	
270	3.467369e+07	3.309597e+00	3.300000e+00	
271	3.483373e+07	3.309686e+00	3.300000e+00	
272	3.499452e+07	3.309776e+00	3.300000e+00	
273	3.515604e+07	3.309867e+00	3.300000e+00	
274	3.531832e+07	3.309958e+00	3.300000e+00	
275	3.548134e+07	3.310050e+00	3.300000e+00	
276	3.564511e+07	3.310143e+00	3.300000e+00	
277	3.580964e+07	3.310237e+00	3.300000e+00	
278	3.597493e+07	3.310332e+00	3.300000e+00	
279	3.614099e+07	3.310428e+00	3.300000e+00	
280	3.630781e+07	3.310524e+00	3.300000e+00	
281	3.647539e+07	3.310622e+00	3.300000e+00	
282	3.664376e+07	3.310720e+00	3.300000e+00	
283	3.681290e+07	3.310820e+00	3.300000e+00	
284	3.698282e+07	3.310920e+00	3.300000e+00	
285	3.715352e+07	3.311021e+00	3.300000e+00	
286	3.732502e+07	3.311123e+00	3.300000e+00	

Index   frequency       vm(antenna)     vm(source)      
--------------------------------------------------------------------------------
287	3.749730e+07	3.311226e+00	3.300000e+00	
288	3.767038e+07	3.311330e+00	3.300000e+00	
289	3.784426e+07	3.311435e+00	3.300000e+00	
290	3.801894e+07	3.311541e+00	3.300000e+00	
291	3.819443e+07	3.311648e+00	3.300000e+00	
292	3.837072e+07	3.311756e+00	3.300000e+00	
293	3.854784e+07	3.311865e+00	3.300000e+00	
294	3.872576e+07	3.311975e+00	3.300000e+00	
295	3.890451e+07	3.312086e+00	3.300000e+00	
296	3.908409e+07	3.312198e+00	3.300000e+00	
297	3.926449e+07	3.312311e+00	3.300000e+00	
298	3.944573e+07	3.312425e+00	3.300000e+00	
299	3.962780e+07	3.312540e+00	3.300000e+00	
300	3.981072e+07	3.312657e+00	3.300000e+00	
301	3.999447e+07	3.312774e+00	3.300000e+00	
302	4.017908e+07	3.312892e+00	3.300000e+00	
303	4.036454e+07	3.313012e+00	3.300000e+00	
304	4.055085e+07	3.313132e+00	3.300000e+00	
305	4.073803e+07	3.313254e+00	3.300000e+00	
306	4.092607e+07	3.313377e+00	3.300000e+00	
307	4.111497e+07	3.313501e+00	3.300000e+00	
308	4.130475e+07	3.313626e+00	3.300000e+00	
309	4.149540e+07	3.313752e+00	3.300000e+00	
310	4.168694e+07	3.313880e+00	3.300000e+00	
311	4.187936e+07	3.314008e+00	3.300000e+00	
312	4.207266e+07	3.314138e+00	3.300000e+00	
313	4.226686e+07	3.314269e+00	3.300000e+00	
314	4.246196e+07	3.314402e+00	3.300000e+00	
315	4.265795e+07	3.314535e+00	3.300000e+00	
316	4.285485e+07	3.314670e+00	3.300000e+00	
317	4.305266e+07	3.314806e+00	3.300000e+00	
318	4.325138e+07	3.314943e+00	3.300000e+00	
319	4.345102e+07	3.315082e+00	3.300000e+00	
320	4.365158e+07	3.315221e+00	3.300000e+00	
321	4.385307e+07	3.315363e+00	3.300000e+00	
322	4.405549e+07	3.315505e+00	3.300000e+00	
323	4.425884e+07	3.315649e+00	3.300000e+00	
324	4.446313e+07	3.315794e+00	3.300000e+00	
325	4.466836e+07	3.315940e+00	3.300000e+00	
326	4.487454e+07	3.316088e+00	3.300000e+00	
327	4.508167e+07	3.316237e+00	3.300000e+00	
328	4.528976e+07	3.316388e+00	3.300000e+00	
329	4.549881e+07	3.316540e+00	3.300000e+00	
330	4.570882e+07	3.316693e+00	3.300000e+00	
331	4.591980e+07	3.316848e+00	3.300000e+00	
332	4.613176e+07	3.317004e+00	3.300000e+00	
333	4.634469e+07	3.317162e+00	3.300000e+00	
334	4.655861e+07	3.317321e+00	3.300000e+00	
335	4.677351e+07	3.317481e+00	3.300000e+00	
336	4.698941e+07	3.317643e+00	3.300000e+00	
337	4.720630e+07	3.317807e+00	3.300000e+00	
338	4.742420e+07	3.317972e+00	3.300000e+00	
339	4.764310e+07	3.318139e+00	3.300000e+00	
340	4.786301e+07	3.318307e+00	3.300000e+00	
341	4.808393e+07	3.318477e+00	3.300000e+00	
342	4.830588e+07	3.318648e+00	3.300000e+00	
343	4.852885e+07	3.318821e+00	3.300000e+00	
344	4.875285e+07	3.318996e+00	3.300000e+00	

Index   frequency       vm(antenna)     vm(source)      
--------------------------------------------------------------------------------
345	4.897788e+07	3.319172e+00	3.300000e+00	
346	4.920395e+07	3.319350e+00	3.300000e+00	
347	4.943107e+07	3.319529e+00	3.300000e+00	
348	4.965923e+07	3.319710e+00	3.300000e+00	
349	4.988845e+07	3.319893e+00	3.300000e+00	
350	5.011872e+07	3.320078e+00	3.300000e+00	
351	5.035006e+07	3.320264e+00	3.300000e+00	
352	5.058247e+07	3.320452e+00	3.300000e+00	
353	5.081594e+07	3.320642e+00	3.300000e+00	
354	5.105050e+07	3.320833e+00	3.300000e+00	
355	5.128614e+07	3.321026e+00	3.300000e+00	
356	5.152286e+07	3.321222e+00	3.300000e+00	
357	5.176068e+07	3.321418e+00	3.300000e+00	
358	5.199960e+07	3.321617e+00	3.300000e+00	
359	5.223962e+07	3.321818e+00	3.300000e+00	
360	5.248075e+07	3.322020e+00	3.300000e+00	
361	5.272299e+07	3.322224e+00	3.300000e+00	
362	5.296634e+07	3.322431e+00	3.300000e+00	
363	5.321083e+07	3.322639e+00	3.300000e+00	
364	5.345644e+07	3.322849e+00	3.300000e+00	
365	5.370318e+07	3.323061e+00	3.300000e+00	
366	5.395106e+07	3.323275e+00	3.300000e+00	
367	5.420009e+07	3.323491e+00	3.300000e+00	
368	5.445027e+07	3.323709e+00	3.300000e+00	
369	5.470160e+07	3.323929e+00	3.300000e+00	
370	5.495409e+07	3.324151e+00	3.300000e+00	
371	5.520774e+07	3.324375e+00	3.300000e+00	
372	5.546257e+07	3.324601e+00	3.300000e+00	
373	5.571857e+07	3.324830e+00	3.300000e+00	
374	5.597576e+07	3.325060e+00	3.300000e+00	
375	5.623413e+07	3.325293e+00	3.300000e+00	
376	5.649370e+07	3.325527e+00	3.300000e+00	
377	5.675446e+07	3.325764e+00	3.300000e+00	
378	5.701643e+07	3.326003e+00	3.300000e+00	
379	5.727960e+07	3.326245e+00	3.300000e+00	
380	5.754399e+07	3.326488e+00	3.300000e+00	
381	5.780960e+07	3.326734e+00	3.300000e+00	
382	5.807644e+07	3.326983e+00	3.300000e+00	
383	5.834451e+07	3.327233e+00	3.300000e+00	
384	5.861382e+07	3.327486e+00	3.300000e+00	
385	5.888437e+07	3.327741e+00	3.300000e+00	
386	5.915616e+07	3.327999e+00	3.300000e+00	
387	5.942922e+07	3.328259e+00	3.300000e+00	
388	5.970353e+07	3.328521e+00	3.300000e+00	
389	5.997911e+07	3.328786e+00	3.300000e+00	
390	6.025596e+07	3.329053e+00	3.300000e+00	
391	6.053409e+07	3.329323e+00	3.300000e+00	
392	6.081350e+07	3.329595e+00	3.300000e+00	
393	6.109420e+07	3.329870e+00	3.300000e+00	
394	6.137620e+07	3.330147e+00	3.300000e+00	
395	6.165950e+07	3.330427e+00	3.300000e+00	
396	6.194411e+07	3.330710e+00	3.300000e+00	
397	6.223003e+07	3.330995e+00	3.300000e+00	
398	6.251727e+07	3.331283e+00	3.300000e+00	
399	6.280584e+07	3.331574e+00	3.300000e+00	
400	6.309573e+07	3.331867e+00	3.300000e+00	
401	6.338697e+07	3.332163e+00	3.300000e+00	
402	6.367955e+07	3.332462e+00	3.300000e+00	

Index   frequency       vm(antenna)     vm(source)      
--------------------------------------------------------------------------------
403	6.397348e+07	3.332763e+00	3.300000e+00	
404	6.426877e+07	3.333068e+00	3.300000e+00	
405	6.456542e+07	3.333375e+00	3.300000e+00	
406	6.486344e+07	3.333685e+00	3.300000e+00	
407	6.516284e+07	3.333998e+00	3.300000e+00	
408	6.546362e+07	3.334314e+00	3.300000e+00	
409	6.576578e+07	3.334633e+00	3.300000e+00	
410	6.606934e+07	3.334954e+00	3.300000e+00	
411	6.637431e+07	3.335279e+00	3.300000e+00	
412	6.668068e+07	3.335607e+00	3.300000e+00	
413	6.698846e+07	3.335938e+00	3.300000e+00	
414	6.729767e+07	3.336272e+00	3.300000e+00	
415	6.760830e+07	3.336609e+00	3.300000e+00	
416	6.792036e+07	3.336949e+00	3.300000e+00	
417	6.823387e+07	3.337293e+00	3.300000e+00	
418	6.854882e+07	3.337639e+00	3.300000e+00	
419	6.886523e+07	3.337989e+00	3.300000e+00	
420	6.918310e+07	3.338342e+00	3.300000e+00	
421	6.950243e+07	3.338699e+00	3.300000e+00	
422	6.982324e+07	3.339059e+00	3.300000e+00	
423	7.014553e+07	3.339422e+00	3.300000e+00	
424	7.046931e+07	3.339788e+00	3.300000e+00	
425	7.079458e+07	3.340158e+00	3.300000e+00	
426	7.112135e+07	3.340531e+00	3.300000e+00	
427	7.144963e+07	3.340908e+00	3.300000e+00	
428	7.177943e+07	3.341289e+00	3.300000e+00	
429	7.211075e+07	3.341673e+00	3.300000e+00	
430	7.244360e+07	3.342060e+00	3.300000e+00	
431	7.277798e+07	3.342451e+00	3.300000e+00	
432	7.311391e+07	3.342846e+00	3.300000e+00	
433	7.345139e+07	3.343245e+00	3.300000e+00	
434	7.379042e+07	3.343647e+00	3.300000e+00	
435	7.413102e+07	3.344053e+00	3.300000e+00	
436	7.447320e+07	3.344463e+00	3.300000e+00	
437	7.481695e+07	3.344876e+00	3.300000e+00	
438	7.516229e+07	3.345294e+00	3.300000e+00	
439	7.550922e+07	3.345715e+00	3.300000e+00	
440	7.585776e+07	3.346140e+00	3.300000e+00	
441	7.620790e+07	3.346570e+00	3.300000e+00	
442	7.655966e+07	3.347003e+00	3.300000e+00	
443	7.691304e+07	3.347440e+00	3.300000e+00	
444	7.726806e+07	3.347882e+00	3.300000e+00	
445	7.762471e+07	3.348327e+00	3.300000e+00	
446	7.798301e+07	3.348777e+00	3.300000e+00	
447	7.834296e+07	3.349231e+00	3.300000e+00	
448	7.870458e+07	3.349689e+00	3.300000e+00	
449	7.906786e+07	3.350152e+00	3.300000e+00	
450	7.943282e+07	3.350619e+00	3.300000e+00	
451	7.979947e+07	3.351090e+00	3.300000e+00	
452	8.016781e+07	3.351565e+00	3.300000e+00	
453	8.053784e+07	3.352046e+00	3.300000e+00	
454	8.090959e+07	3.352530e+00	3.300000e+00	
455	8.128305e+07	3.353019e+00	3.300000e+00	
456	8.165824e+07	3.353513e+00	3.300000e+00	
457	8.203515e+07	3.354011e+00	3.300000e+00	
458	8.241381e+07	3.354514e+00	3.300000e+00	
459	8.279422e+07	3.355022e+00	3.300000e+00	
460	8.317638e+07	3.355534e+00	3.300000e+00	

Index   frequency       vm(antenna)     vm(source)      
--------------------------------------------------------------------------------
461	8.356030e+07	3.356051e+00	3.300000e+00	
462	8.394600e+07	3.356573e+00	3.300000e+00	
463	8.433348e+07	3.357100e+00	3.300000e+00	
464	8.472274e+07	3.357632e+00	3.300000e+00	
465	8.511380e+07	3.358169e+00	3.300000e+00	
466	8.550667e+07	3.358711e+00	3.300000e+00	
467	8.590135e+07	3.359258e+00	3.300000e+00	
468	8.629785e+07	3.359810e+00	3.300000e+00	
469	8.669619e+07	3.360368e+00	3.300000e+00	
470	8.709636e+07	3.360930e+00	3.300000e+00	
471	8.749838e+07	3.361498e+00	3.300000e+00	
472	8.790225e+07	3.362071e+00	3.300000e+00	
473	8.830799e+07	3.362650e+00	3.300000e+00	
474	8.871560e+07	3.363233e+00	3.300000e+00	
475	8.912509e+07	3.363823e+00	3.300000e+00	
476	8.953648e+07	3.364418e+00	3.300000e+00	
477	8.994976e+07	3.365018e+00	3.300000e+00	
478	9.036495e+07	3.365625e+00	3.300000e+00	
479	9.078205e+07	3.366236e+00	3.300000e+00	
480	9.120108e+07	3.366854e+00	3.300000e+00	
481	9.162205e+07	3.367477e+00	3.300000e+00	
482	9.204496e+07	3.368107e+00	3.300000e+00	
483	9.246982e+07	3.368742e+00	3.300000e+00	
484	9.289664e+07	3.369383e+00	3.300000e+00	
485	9.332543e+07	3.370030e+00	3.300000e+00	
486	9.375620e+07	3.370683e+00	3.300000e+00	
487	9.418896e+07	3.371343e+00	3.300000e+00	
488	9.462372e+07	3.372008e+00	3.300000e+00	
489	9.506048e+07	3.372680e+00	3.300000e+00	
490	9.549926e+07	3.373358e+00	3.300000e+00	
491	9.594006e+07	3.374043e+00	3.300000e+00	
492	9.638290e+07	3.374734e+00	3.300000e+00	
493	9.682779e+07	3.375431e+00	3.300000e+00	
494	9.727472e+07	3.376135e+00	3.300000e+00	
495	9.772372e+07	3.376846e+00	3.300000e+00	
496	9.817479e+07	3.377563e+00	3.300000e+00	
497	9.862795e+07	3.378287e+00	3.300000e+00	
498	9.908319e+07	3.379018e+00	3.300000e+00	
499	9.954054e+07	3.379756e+00	3.300000e+00	
500	1.000000e+08	3.380500e+00	3.300000e+00	
501	1.004616e+08	3.381252e+00	3.300000e+00	
502	1.009253e+08	3.382011e+00	3.300000e+00	
503	1.013911e+08	3.382777e+00	3.300000e+00	
504	1.018591e+08	3.383550e+00	3.300000e+00	
505	1.023293e+08	3.384330e+00	3.300000e+00	
506	1.028016e+08	3.385118e+00	3.300000e+00	
507	1.032761e+08	3.385913e+00	3.300000e+00	
508	1.037528e+08	3.386716e+00	3.300000e+00	
509	1.042317e+08	3.387526e+00	3.300000e+00	
510	1.047129e+08	3.388344e+00	3.300000e+00	
511	1.051962e+08	3.389169e+00	3.300000e+00	
512	1.056818e+08	3.390002e+00	3.300000e+00	
513	1.061696e+08	3.390844e+00	3.300000e+00	
514	1.066596e+08	3.391693e+00	3.300000e+00	
515	1.071519e+08	3.392550e+00	3.300000e+00	
516	1.076465e+08	3.393415e+00	3.300000e+00	
517	1.081434e+08	3.394288e+00	3.300000e+00	
518	1.086426e+08	3.395170e+00	3.300000e+00	

Index   frequency       vm(antenna)     vm(source)      
--------------------------------------------------------------------------------
519	1.091440e+08	3.396060e+00	3.300000e+00	
520	1.096478e+08	3.396958e+00	3.300000e+00	
521	1.101539e+08	3.397865e+00	3.300000e+00	
522	1.106624e+08	3.398780e+00	3.300000e+00	
523	1.111732e+08	3.399704e+00	3.300000e+00	
524	1.116863e+08	3.400637e+00	3.300000e+00	
525	1.122018e+08	3.401578e+00	3.300000e+00	
526	1.127197e+08	3.402529e+00	3.300000e+00	
527	1.132400e+08	3.403488e+00	3.300000e+00	
528	1.137627e+08	3.404456e+00	3.300000e+00	
529	1.142878e+08	3.405434e+00	3.300000e+00	
530	1.148154e+08	3.406421e+00	3.300000e+00	
531	1.153453e+08	3.407417e+00	3.300000e+00	
532	1.158777e+08	3.408422e+00	3.300000e+00	
533	1.164126e+08	3.409437e+00	3.300000e+00	
534	1.169499e+08	3.410462e+00	3.300000e+00	
535	1.174898e+08	3.411496e+00	3.300000e+00	
536	1.180321e+08	3.412540e+00	3.300000e+00	
537	1.185769e+08	3.413594e+00	3.300000e+00	
538	1.191242e+08	3.414658e+00	3.300000e+00	
539	1.196741e+08	3.415732e+00	3.300000e+00	
540	1.202264e+08	3.416816e+00	3.300000e+00	
541	1.207814e+08	3.417911e+00	3.300000e+00	
542	1.213389e+08	3.419015e+00	3.300000e+00	
543	1.218990e+08	3.420130e+00	3.300000e+00	
544	1.224616e+08	3.421256e+00	3.300000e+00	
545	1.230269e+08	3.422393e+00	3.300000e+00	
546	1.235947e+08	3.423540e+00	3.300000e+00	
547	1.241652e+08	3.424698e+00	3.300000e+00	
548	1.247384e+08	3.425867e+00	3.300000e+00	
549	1.253141e+08	3.427047e+00	3.300000e+00	
550	1.258925e+08	3.428238e+00	3.300000e+00	
551	1.264736e+08	3.429440e+00	3.300000e+00	
552	1.270574e+08	3.430654e+00	3.300000e+00	
553	1.276439e+08	3.431880e+00	3.300000e+00	
554	1.282331e+08	3.433117e+00	3.300000e+00	
555	1.288250e+08	3.434365e+00	3.300000e+00	
556	1.294196e+08	3.435626e+00	3.300000e+00	
557	1.300170e+08	3.436898e+00	3.300000e+00	
558	1.306171e+08	3.438183e+00	3.300000e+00	
559	1.312200e+08	3.439480e+00	3.300000e+00	
560	1.318257e+08	3.440789e+00	3.300000e+00	
561	1.324342e+08	3.442110e+00	3.300000e+00	
562	1.330454e+08	3.443444e+00	3.300000e+00	
563	1.336596e+08	3.444791e+00	3.300000e+00	
564	1.342765e+08	3.446150e+00	3.300000e+00	
565	1.348963e+08	3.447522e+00	3.300000e+00	
566	1.355189e+08	3.448908e+00	3.300000e+00	
567	1.361445e+08	3.450306e+00	3.300000e+00	
568	1.367729e+08	3.451718e+00	3.300000e+00	
569	1.374042e+08	3.453143e+00	3.300000e+00	
570	1.380384e+08	3.454581e+00	3.300000e+00	
571	1.386756e+08	3.456034e+00	3.300000e+00	
572	1.393157e+08	3.457500e+00	3.300000e+00	
573	1.399587e+08	3.458980e+00	3.300000e+00	
574	1.406048e+08	3.460474e+00	3.300000e+00	
575	1.412538e+08	3.461982e+00	3.300000e+00	
576	1.419058e+08	3.463505e+00	3.300000e+00	

Index   frequency       vm(antenna)     vm(source)      
--------------------------------------------------------------------------------
577	1.425608e+08	3.465042e+00	3.300000e+00	
578	1.432188e+08	3.466593e+00	3.300000e+00	
579	1.438799e+08	3.468160e+00	3.300000e+00	
580	1.445440e+08	3.469741e+00	3.300000e+00	
581	1.452112e+08	3.471337e+00	3.300000e+00	
582	1.458814e+08	3.472948e+00	3.300000e+00	
583	1.465548e+08	3.474575e+00	3.300000e+00	
584	1.472313e+08	3.476217e+00	3.300000e+00	
585	1.479108e+08	3.477875e+00	3.300000e+00	
586	1.485936e+08	3.479549e+00	3.300000e+00	
587	1.492794e+08	3.481238e+00	3.300000e+00	
588	1.499685e+08	3.482944e+00	3.300000e+00	
589	1.506607e+08	3.484665e+00	3.300000e+00	
590	1.513561e+08	3.486403e+00	3.300000e+00	
591	1.520548e+08	3.488158e+00	3.300000e+00	
592	1.527566e+08	3.489929e+00	3.300000e+00	
593	1.534617e+08	3.491717e+00	3.300000e+00	
594	1.541700e+08	3.493523e+00	3.300000e+00	
595	1.548817e+08	3.495345e+00	3.300000e+00	
596	1.555966e+08	3.497184e+00	3.300000e+00	
597	1.563148e+08	3.499042e+00	3.300000e+00	
598	1.570363e+08	3.500916e+00	3.300000e+00	
599	1.577611e+08	3.502809e+00	3.300000e+00	
600	1.584893e+08	3.504719e+00	3.300000e+00	
601	1.592209e+08	3.506648e+00	3.300000e+00	
602	1.599558e+08	3.508595e+00	3.300000e+00	
603	1.606941e+08	3.510561e+00	3.300000e+00	
604	1.614359e+08	3.512545e+00	3.300000e+00	
605	1.621810e+08	3.514548e+00	3.300000e+00	
606	1.629296e+08	3.516570e+00	3.300000e+00	
607	1.636817e+08	3.518612e+00	3.300000e+00	
608	1.644372e+08	3.520673e+00	3.300000e+00	
609	1.651962e+08	3.522753e+00	3.300000e+00	
610	1.659587e+08	3.524853e+00	3.300000e+00	
611	1.667247e+08	3.526973e+00	3.300000e+00	
612	1.674943e+08	3.529113e+00	3.300000e+00	
613	1.682674e+08	3.531274e+00	3.300000e+00	
614	1.690441e+08	3.533455e+00	3.300000e+00	
615	1.698244e+08	3.535657e+00	3.300000e+00	
616	1.706082e+08	3.537880e+00	3.300000e+00	
617	1.713957e+08	3.540123e+00	3.300000e+00	
618	1.721869e+08	3.542389e+00	3.300000e+00	
619	1.729816e+08	3.544675e+00	3.300000e+00	
620	1.737801e+08	3.546984e+00	3.300000e+00	
621	1.745822e+08	3.549314e+00	3.300000e+00	
622	1.753881e+08	3.551666e+00	3.300000e+00	
623	1.761976e+08	3.554041e+00	3.300000e+00	
624	1.770109e+08	3.556438e+00	3.300000e+00	
625	1.778279e+08	3.558858e+00	3.300000e+00	
626	1.786488e+08	3.561301e+00	3.300000e+00	
627	1.794734e+08	3.563767e+00	3.300000e+00	
628	1.803018e+08	3.566257e+00	3.300000e+00	
629	1.811340e+08	3.568770e+00	3.300000e+00	
630	1.819701e+08	3.571306e+00	3.300000e+00	
631	1.828100e+08	3.573867e+00	3.300000e+00	
632	1.836538e+08	3.576452e+00	3.300000e+00	
633	1.845015e+08	3.579062e+00	3.300000e+00	
634	1.853532e+08	3.581696e+00	3.300000e+00	

Index   frequency       vm(antenna)     vm(source)      
--------------------------------------------------------------------------------
635	1.862087e+08	3.584355e+00	3.300000e+00	
636	1.870682e+08	3.587040e+00	3.300000e+00	
637	1.879317e+08	3.589749e+00	3.300000e+00	
638	1.887991e+08	3.592485e+00	3.300000e+00	
639	1.896706e+08	3.595246e+00	3.300000e+00	
640	1.905461e+08	3.598033e+00	3.300000e+00	
641	1.914256e+08	3.600846e+00	3.300000e+00	
642	1.923092e+08	3.603686e+00	3.300000e+00	
643	1.931968e+08	3.606553e+00	3.300000e+00	
644	1.940886e+08	3.609446e+00	3.300000e+00	
645	1.949845e+08	3.612367e+00	3.300000e+00	
646	1.958845e+08	3.615316e+00	3.300000e+00	
647	1.967886e+08	3.618292e+00	3.300000e+00	
648	1.976970e+08	3.621296e+00	3.300000e+00	
649	1.986095e+08	3.624328e+00	3.300000e+00	
650	1.995262e+08	3.627389e+00	3.300000e+00	
651	2.004472e+08	3.630479e+00	3.300000e+00	
652	2.013724e+08	3.633597e+00	3.300000e+00	
653	2.023019e+08	3.636745e+00	3.300000e+00	
654	2.032357e+08	3.639922e+00	3.300000e+00	
655	2.041738e+08	3.643129e+00	3.300000e+00	
656	2.051162e+08	3.646365e+00	3.300000e+00	
657	2.060630e+08	3.649632e+00	3.300000e+00	
658	2.070141e+08	3.652930e+00	3.300000e+00	
659	2.079697e+08	3.656258e+00	3.300000e+00	
660	2.089296e+08	3.659617e+00	3.300000e+00	
661	2.098940e+08	3.663008e+00	3.300000e+00	
662	2.108628e+08	3.666429e+00	3.300000e+00	
663	2.118361e+08	3.669883e+00	3.300000e+00	
664	2.128139e+08	3.673369e+00	3.300000e+00	
665	2.137962e+08	3.676887e+00	3.300000e+00	
666	2.147830e+08	3.680437e+00	3.300000e+00	
667	2.157744e+08	3.684020e+00	3.300000e+00	
668	2.167704e+08	3.687636e+00	3.300000e+00	
669	2.177710e+08	3.691286e+00	3.300000e+00	
670	2.187762e+08	3.694969e+00	3.300000e+00	
671	2.197860e+08	3.698686e+00	3.300000e+00	
672	2.208005e+08	3.702437e+00	3.300000e+00	
673	2.218196e+08	3.706222e+00	3.300000e+00	
674	2.228435e+08	3.710042e+00	3.300000e+00	
675	2.238721e+08	3.713897e+00	3.300000e+00	
676	2.249055e+08	3.717787e+00	3.300000e+00	
677	2.259436e+08	3.721713e+00	3.300000e+00	
678	2.269865e+08	3.725674e+00	3.300000e+00	
679	2.280342e+08	3.729671e+00	3.300000e+00	
680	2.290868e+08	3.733704e+00	3.300000e+00	
681	2.301442e+08	3.737773e+00	3.300000e+00	
682	2.312065e+08	3.741879e+00	3.300000e+00	
683	2.322737e+08	3.746022e+00	3.300000e+00	
684	2.333458e+08	3.750202e+00	3.300000e+00	
685	2.344229e+08	3.754420e+00	3.300000e+00	
686	2.355049e+08	3.758675e+00	3.300000e+00	
687	2.365920e+08	3.762968e+00	3.300000e+00	
688	2.376840e+08	3.767300e+00	3.300000e+00	
689	2.387811e+08	3.771669e+00	3.300000e+00	
690	2.398833e+08	3.776077e+00	3.300000e+00	
691	2.409905e+08	3.780524e+00	3.300000e+00	
692	2.421029e+08	3.785010e+00	3.300000e+00	

Index   frequency       vm(antenna)     vm(source)      
--------------------------------------------------------------------------------
693	2.432204e+08	3.789536e+00	3.300000e+00	
694	2.443431e+08	3.794100e+00	3.300000e+00	
695	2.454709e+08	3.798705e+00	3.300000e+00	
696	2.466039e+08	3.803349e+00	3.300000e+00	
697	2.477422e+08	3.808034e+00	3.300000e+00	
698	2.488857e+08	3.812759e+00	3.300000e+00	
699	2.500345e+08	3.817524e+00	3.300000e+00	
700	2.511886e+08	3.822330e+00	3.300000e+00	
701	2.523481e+08	3.827177e+00	3.300000e+00	
702	2.535129e+08	3.832065e+00	3.300000e+00	
703	2.546830e+08	3.836994e+00	3.300000e+00	
704	2.558586e+08	3.841964e+00	3.300000e+00	
705	2.570396e+08	3.846977e+00	3.300000e+00	
706	2.582260e+08	3.852030e+00	3.300000e+00	
707	2.594179e+08	3.857126e+00	3.300000e+00	
708	2.606154e+08	3.862263e+00	3.300000e+00	
709	2.618183e+08	3.867443e+00	3.300000e+00	
710	2.630268e+08	3.872664e+00	3.300000e+00	
711	2.642409e+08	3.877928e+00	3.300000e+00	
712	2.654606e+08	3.883234e+00	3.300000e+00	
713	2.666859e+08	3.888583e+00	3.300000e+00	
714	2.679168e+08	3.893974e+00	3.300000e+00	
715	2.691535e+08	3.899408e+00	3.300000e+00	
716	2.703958e+08	3.904884e+00	3.300000e+00	
717	2.716439e+08	3.910402e+00	3.300000e+00	
718	2.728978e+08	3.915963e+00	3.300000e+00	
719	2.741574e+08	3.921567e+00	3.300000e+00	
720	2.754229e+08	3.927213e+00	3.300000e+00	
721	2.766942e+08	3.932902e+00	3.300000e+00	
722	2.779713e+08	3.938633e+00	3.300000e+00	
723	2.792544e+08	3.944406e+00	3.300000e+00	
724	2.805434e+08	3.950222e+00	3.300000e+00	
725	2.818383e+08	3.956080e+00	3.300000e+00	
726	2.831392e+08	3.961979e+00	3.300000e+00	
727	2.844461e+08	3.967921e+00	3.300000e+00	
728	2.857591e+08	3.973904e+00	3.300000e+00	
729	2.870781e+08	3.979928e+00	3.300000e+00	
730	2.884032e+08	3.985993e+00	3.300000e+00	
731	2.897344e+08	3.992099e+00	3.300000e+00	
732	2.910717e+08	3.998246e+00	3.300000e+00	
733	2.924152e+08	4.004433e+00	3.300000e+00	
734	2.937650e+08	4.010660e+00	3.300000e+00	
735	2.951209e+08	4.016926e+00	3.300000e+00	
736	2.964831e+08	4.023232e+00	3.300000e+00	
737	2.978516e+08	4.029576e+00	3.300000e+00	
738	2.992265e+08	4.035958e+00	3.300000e+00	
739	3.006076e+08	4.042377e+00	3.300000e+00	
740	3.019952e+08	4.048834e+00	3.300000e+00	
741	3.033891e+08	4.055327e+00	3.300000e+00	
742	3.047895e+08	4.061856e+00	3.300000e+00	
743	3.061963e+08	4.068420e+00	3.300000e+00	
744	3.076097e+08	4.075018e+00	3.300000e+00	
745	3.090295e+08	4.081650e+00	3.300000e+00	
746	3.104560e+08	4.088315e+00	3.300000e+00	
747	3.118890e+08	4.095011e+00	3.300000e+00	
748	3.133286e+08	4.101738e+00	3.300000e+00	
749	3.147748e+08	4.108495e+00	3.300000e+00	
750	3.162278e+08	4.115282e+00	3.300000e+00	

Index   frequency       vm(antenna)     vm(source)      
--------------------------------------------------------------------------------
751	3.176874e+08	4.122096e+00	3.300000e+00	
752	3.191538e+08	4.128936e+00	3.300000e+00	
753	3.206269e+08	4.135802e+00	3.300000e+00	
754	3.221069e+08	4.142692e+00	3.300000e+00	
755	3.235937e+08	4.149605e+00	3.300000e+00	
756	3.250873e+08	4.156540e+00	3.300000e+00	
757	3.265878e+08	4.163494e+00	3.300000e+00	
758	3.280953e+08	4.170466e+00	3.300000e+00	
759	3.296097e+08	4.177456e+00	3.300000e+00	
760	3.311311e+08	4.184460e+00	3.300000e+00	
761	3.326596e+08	4.191477e+00	3.300000e+00	
762	3.341950e+08	4.198506e+00	3.300000e+00	
763	3.357376e+08	4.205544e+00	3.300000e+00	
764	3.372873e+08	4.212589e+00	3.300000e+00	
765	3.388442e+08	4.219640e+00	3.300000e+00	
766	3.404082e+08	4.226693e+00	3.300000e+00	
767	3.419794e+08	4.233747e+00	3.300000e+00	
768	3.435579e+08	4.240799e+00	3.300000e+00	
769	3.451437e+08	4.247847e+00	3.300000e+00	
770	3.467369e+08	4.254888e+00	3.300000e+00	
771	3.483373e+08	4.261918e+00	3.300000e+00	
772	3.499452e+08	4.268937e+00	3.300000e+00	
773	3.515604e+08	4.275939e+00	3.300000e+00	
774	3.531832e+08	4.282923e+00	3.300000e+00	
775	3.548134e+08	4.289885e+00	3.300000e+00	
776	3.564511e+08	4.296822e+00	3.300000e+00	
777	3.580964e+08	4.303730e+00	3.300000e+00	
778	3.597493e+08	4.310605e+00	3.300000e+00	
779	3.614099e+08	4.317445e+00	3.300000e+00	
780	3.630781e+08	4.324245e+00	3.300000e+00	
781	3.647539e+08	4.331000e+00	3.300000e+00	
782	3.664376e+08	4.337708e+00	3.300000e+00	
783	3.681290e+08	4.344364e+00	3.300000e+00	
784	3.698282e+08	4.350962e+00	3.300000e+00	
785	3.715352e+08	4.357500e+00	3.300000e+00	
786	3.732502e+08	4.363971e+00	3.300000e+00	
787	3.749730e+08	4.370372e+00	3.300000e+00	
788	3.767038e+08	4.376697e+00	3.300000e+00	
789	3.784426e+08	4.382940e+00	3.300000e+00	
790	3.801894e+08	4.389098e+00	3.300000e+00	
791	3.819443e+08	4.395163e+00	3.300000e+00	
792	3.837072e+08	4.401131e+00	3.300000e+00	
793	3.854784e+08	4.406995e+00	3.300000e+00	
794	3.872576e+08	4.412750e+00	3.300000e+00	
795	3.890451e+08	4.418390e+00	3.300000e+00	
796	3.908409e+08	4.423908e+00	3.300000e+00	
797	3.926449e+08	4.429297e+00	3.300000e+00	
798	3.944573e+08	4.434552e+00	3.300000e+00	
799	3.962780e+08	4.439664e+00	3.300000e+00	
800	3.981072e+08	4.444629e+00	3.300000e+00	
801	3.999447e+08	4.449437e+00	3.300000e+00	
802	4.017908e+08	4.454083e+00	3.300000e+00	
803	4.036454e+08	4.458558e+00	3.300000e+00	
804	4.055085e+08	4.462855e+00	3.300000e+00	
805	4.073803e+08	4.466966e+00	3.300000e+00	
806	4.092607e+08	4.470883e+00	3.300000e+00	
807	4.111497e+08	4.474599e+00	3.300000e+00	
808	4.130475e+08	4.478106e+00	3.300000e+00	

Index   frequency       vm(antenna)     vm(source)      
--------------------------------------------------------------------------------
809	4.149540e+08	4.481394e+00	3.300000e+00	
810	4.168694e+08	4.484456e+00	3.300000e+00	
811	4.187936e+08	4.487283e+00	3.300000e+00	
812	4.207266e+08	4.489866e+00	3.300000e+00	
813	4.226686e+08	4.492197e+00	3.300000e+00	
814	4.246196e+08	4.494267e+00	3.300000e+00	
815	4.265795e+08	4.496068e+00	3.300000e+00	
816	4.285485e+08	4.497589e+00	3.300000e+00	
817	4.305266e+08	4.498823e+00	3.300000e+00	
818	4.325138e+08	4.499760e+00	3.300000e+00	
819	4.345102e+08	4.500391e+00	3.300000e+00	
820	4.365158e+08	4.500707e+00	3.300000e+00	
821	4.385307e+08	4.500699e+00	3.300000e+00	
822	4.405549e+08	4.500358e+00	3.300000e+00	
823	4.425884e+08	4.499674e+00	3.300000e+00	
824	4.446313e+08	4.498640e+00	3.300000e+00	
825	4.466836e+08	4.497245e+00	3.300000e+00	
826	4.487454e+08	4.495481e+00	3.300000e+00	
827	4.508167e+08	4.493340e+00	3.300000e+00	
828	4.528976e+08	4.490813e+00	3.300000e+00	
829	4.549881e+08	4.487890e+00	3.300000e+00	
830	4.570882e+08	4.484564e+00	3.300000e+00	
831	4.591980e+08	4.480827e+00	3.300000e+00	
832	4.613176e+08	4.476671e+00	3.300000e+00	
833	4.634469e+08	4.472088e+00	3.300000e+00	
834	4.655861e+08	4.467070e+00	3.300000e+00	
835	4.677351e+08	4.461611e+00	3.300000e+00	
836	4.698941e+08	4.455703e+00	3.300000e+00	
837	4.720630e+08	4.449340e+00	3.300000e+00	
838	4.742420e+08	4.442515e+00	3.300000e+00	
839	4.764310e+08	4.435222e+00	3.300000e+00	
840	4.786301e+08	4.427457e+00	3.300000e+00	
841	4.808393e+08	4.419214e+00	3.300000e+00	
842	4.830588e+08	4.410487e+00	3.300000e+00	
843	4.852885e+08	4.401274e+00	3.300000e+00	
844	4.875285e+08	4.391569e+00	3.300000e+00	
845	4.897788e+08	4.381370e+00	3.300000e+00	
846	4.920395e+08	4.370673e+00	3.300000e+00	
847	4.943107e+08	4.359476e+00	3.300000e+00	
848	4.965923e+08	4.347778e+00	3.300000e+00	
849	4.988845e+08	4.335577e+00	3.300000e+00	
850	5.011872e+08	4.322872e+00	3.300000e+00	
851	5.035006e+08	4.309663e+00	3.300000e+00	
852	5.058247e+08	4.295951e+00	3.300000e+00	
853	5.081594e+08	4.281736e+00	3.300000e+00	
854	5.105050e+08	4.267019e+00	3.300000e+00	
855	5.128614e+08	4.251803e+00	3.300000e+00	
856	5.152286e+08	4.236090e+00	3.300000e+00	
857	5.176068e+08	4.219885e+00	3.300000e+00	
858	5.199960e+08	4.203189e+00	3.300000e+00	
859	5.223962e+08	4.186009e+00	3.300000e+00	
860	5.248075e+08	4.168348e+00	3.300000e+00	
861	5.272299e+08	4.150213e+00	3.300000e+00	
862	5.296634e+08	4.131610e+00	3.300000e+00	
863	5.321083e+08	4.112545e+00	3.300000e+00	
864	5.345644e+08	4.093025e+00	3.300000e+00	
865	5.370318e+08	4.073059e+00	3.300000e+00	
866	5.395106e+08	4.052654e+00	3.300000e+00	

Index   frequency       vm(antenna)     vm(source)      
--------------------------------------------------------------------------------
867	5.420009e+08	4.031820e+00	3.300000e+00	
868	5.445027e+08	4.010565e+00	3.300000e+00	
869	5.470160e+08	3.988900e+00	3.300000e+00	
870	5.495409e+08	3.966834e+00	3.300000e+00	
871	5.520774e+08	3.944377e+00	3.300000e+00	
872	5.546257e+08	3.921542e+00	3.300000e+00	
873	5.571857e+08	3.898339e+00	3.300000e+00	
874	5.597576e+08	3.874780e+00	3.300000e+00	
875	5.623413e+08	3.850877e+00	3.300000e+00	
876	5.649370e+08	3.826642e+00	3.300000e+00	
877	5.675446e+08	3.802088e+00	3.300000e+00	
878	5.701643e+08	3.777227e+00	3.300000e+00	
879	5.727960e+08	3.752072e+00	3.300000e+00	
880	5.754399e+08	3.726637e+00	3.300000e+00	
881	5.780960e+08	3.700935e+00	3.300000e+00	
882	5.807644e+08	3.674979e+00	3.300000e+00	
883	5.834451e+08	3.648783e+00	3.300000e+00	
884	5.861382e+08	3.622360e+00	3.300000e+00	
885	5.888437e+08	3.595724e+00	3.300000e+00	
886	5.915616e+08	3.568888e+00	3.300000e+00	
887	5.942922e+08	3.541867e+00	3.300000e+00	
888	5.970353e+08	3.514674e+00	3.300000e+00	
889	5.997911e+08	3.487321e+00	3.300000e+00	
890	6.025596e+08	3.459824e+00	3.300000e+00	
891	6.053409e+08	3.432195e+00	3.300000e+00	
892	6.081350e+08	3.404446e+00	3.300000e+00	
893	6.109420e+08	3.376593e+00	3.300000e+00	
894	6.137620e+08	3.348646e+00	3.300000e+00	
895	6.165950e+08	3.320620e+00	3.300000e+00	
896	6.194411e+08	3.292526e+00	3.300000e+00	
897	6.223003e+08	3.264377e+00	3.300000e+00	
898	6.251727e+08	3.236184e+00	3.300000e+00	
899	6.280584e+08	3.207961e+00	3.300000e+00	
900	6.309573e+08	3.179718e+00	3.300000e+00	
901	6.338697e+08	3.151466e+00	3.300000e+00	
902	6.367955e+08	3.123217e+00	3.300000e+00	
903	6.397348e+08	3.094982e+00	3.300000e+00	
904	6.426877e+08	3.066771e+00	3.300000e+00	
905	6.456542e+08	3.038593e+00	3.300000e+00	
906	6.486344e+08	3.010460e+00	3.300000e+00	
907	6.516284e+08	2.982380e+00	3.300000e+00	
908	6.546362e+08	2.954362e+00	3.300000e+00	
909	6.576578e+08	2.926417e+00	3.300000e+00	
910	6.606934e+08	2.898551e+00	3.300000e+00	
911	6.637431e+08	2.870775e+00	3.300000e+00	
912	6.668068e+08	2.843095e+00	3.300000e+00	
913	6.698846e+08	2.815519e+00	3.300000e+00	
914	6.729767e+08	2.788054e+00	3.300000e+00	
915	6.760830e+08	2.760708e+00	3.300000e+00	
916	6.792036e+08	2.733488e+00	3.300000e+00	
917	6.823387e+08	2.706399e+00	3.300000e+00	
918	6.854882e+08	2.679448e+00	3.300000e+00	
919	6.886523e+08	2.652641e+00	3.300000e+00	
920	6.918310e+08	2.625983e+00	3.300000e+00	
921	6.950243e+08	2.599480e+00	3.300000e+00	
922	6.982324e+08	2.573135e+00	3.300000e+00	
923	7.014553e+08	2.546955e+00	3.300000e+00	
924	7.046931e+08	2.520944e+00	3.300000e+00	

Index   frequency       vm(antenna)     vm(source)      
--------------------------------------------------------------------------------
925	7.079458e+08	2.495104e+00	3.300000e+00	
926	7.112135e+08	2.469442e+00	3.300000e+00	
927	7.144963e+08	2.443959e+00	3.300000e+00	
928	7.177943e+08	2.418660e+00	3.300000e+00	
929	7.211075e+08	2.393547e+00	3.300000e+00	
930	7.244360e+08	2.368624e+00	3.300000e+00	
931	7.277798e+08	2.343892e+00	3.300000e+00	
932	7.311391e+08	2.319356e+00	3.300000e+00	
933	7.345139e+08	2.295016e+00	3.300000e+00	
934	7.379042e+08	2.270875e+00	3.300000e+00	
935	7.413102e+08	2.246935e+00	3.300000e+00	
936	7.447320e+08	2.223197e+00	3.300000e+00	
937	7.481695e+08	2.199662e+00	3.300000e+00	
938	7.516229e+08	2.176333e+00	3.300000e+00	
939	7.550922e+08	2.153210e+00	3.300000e+00	
940	7.585776e+08	2.130294e+00	3.300000e+00	
941	7.620790e+08	2.107586e+00	3.300000e+00	
942	7.655966e+08	2.085087e+00	3.300000e+00	
943	7.691304e+08	2.062796e+00	3.300000e+00	
944	7.726806e+08	2.040715e+00	3.300000e+00	
945	7.762471e+08	2.018844e+00	3.300000e+00	
946	7.798301e+08	1.997182e+00	3.300000e+00	
947	7.834296e+08	1.975731e+00	3.300000e+00	
948	7.870458e+08	1.954488e+00	3.300000e+00	
949	7.906786e+08	1.933456e+00	3.300000e+00	
950	7.943282e+08	1.912632e+00	3.300000e+00	
951	7.979947e+08	1.892017e+00	3.300000e+00	
952	8.016781e+08	1.871610e+00	3.300000e+00	
953	8.053784e+08	1.851410e+00	3.300000e+00	
954	8.090959e+08	1.831417e+00	3.300000e+00	
955	8.128305e+08	1.811630e+00	3.300000e+00	
956	8.165824e+08	1.792048e+00	3.300000e+00	
957	8.203515e+08	1.772670e+00	3.300000e+00	
958	8.241381e+08	1.753496e+00	3.300000e+00	
959	8.279422e+08	1.734523e+00	3.300000e+00	
960	8.317638e+08	1.715752e+00	3.300000e+00	
961	8.356030e+08	1.697180e+00	3.300000e+00	
962	8.394600e+08	1.678808e+00	3.300000e+00	
963	8.433348e+08	1.660632e+00	3.300000e+00	
964	8.472274e+08	1.642653e+00	3.300000e+00	
965	8.511380e+08	1.624868e+00	3.300000e+00	
966	8.550667e+08	1.607276e+00	3.300000e+00	
967	8.590135e+08	1.589877e+00	3.300000e+00	
968	8.629785e+08	1.572668e+00	3.300000e+00	
969	8.669619e+08	1.555648e+00	3.300000e+00	
970	8.709636e+08	1.538815e+00	3.300000e+00	
971	8.749838e+08	1.522168e+00	3.300000e+00	
972	8.790225e+08	1.505706e+00	3.300000e+00	
973	8.830799e+08	1.489426e+00	3.300000e+00	
974	8.871560e+08	1.473327e+00	3.300000e+00	
975	8.912509e+08	1.457408e+00	3.300000e+00	
976	8.953648e+08	1.441667e+00	3.300000e+00	
977	8.994976e+08	1.426103e+00	3.300000e+00	
978	9.036495e+08	1.410713e+00	3.300000e+00	
979	9.078205e+08	1.395496e+00	3.300000e+00	
980	9.120108e+08	1.380450e+00	3.300000e+00	
981	9.162205e+08	1.365574e+00	3.300000e+00	
982	9.204496e+08	1.350865e+00	3.300000e+00	

Index   frequency       vm(antenna)     vm(source)      
--------------------------------------------------------------------------------
983	9.246982e+08	1.336324e+00	3.300000e+00	
984	9.289664e+08	1.321946e+00	3.300000e+00	
985	9.332543e+08	1.307732e+00	3.300000e+00	
986	9.375620e+08	1.293679e+00	3.300000e+00	
987	9.418896e+08	1.279785e+00	3.300000e+00	
988	9.462372e+08	1.266050e+00	3.300000e+00	
989	9.506048e+08	1.252470e+00	3.300000e+00	
990	9.549926e+08	1.239045e+00	3.300000e+00	
991	9.594006e+08	1.225773e+00	3.300000e+00	
992	9.638290e+08	1.212652e+00	3.300000e+00	
993	9.682779e+08	1.199681e+00	3.300000e+00	
994	9.727472e+08	1.186857e+00	3.300000e+00	
995	9.772372e+08	1.174180e+00	3.300000e+00	
996	9.817479e+08	1.161648e+00	3.300000e+00	
997	9.862795e+08	1.149258e+00	3.300000e+00	
998	9.908319e+08	1.137010e+00	3.300000e+00	
999	9.954054e+08	1.124902e+00	3.300000e+00	
1000	1.000000e+09	1.112932e+00	3.300000e+00	
1001	1.004616e+09	1.101099e+00	3.300000e+00	
1002	1.009253e+09	1.089400e+00	3.300000e+00	
1003	1.013911e+09	1.077835e+00	3.300000e+00	
1004	1.018591e+09	1.066403e+00	3.300000e+00	
1005	1.023293e+09	1.055100e+00	3.300000e+00	
1006	1.028016e+09	1.043927e+00	3.300000e+00	
1007	1.032761e+09	1.032881e+00	3.300000e+00	
1008	1.037528e+09	1.021960e+00	3.300000e+00	
1009	1.042317e+09	1.011165e+00	3.300000e+00	
1010	1.047129e+09	1.000492e+00	3.300000e+00	
1011	1.051962e+09	9.899408e-01	3.300000e+00	
1012	1.056818e+09	9.795096e-01	3.300000e+00	
1013	1.061696e+09	9.691971e-01	3.300000e+00	
1014	1.066596e+09	9.590019e-01	3.300000e+00	
1015	1.071519e+09	9.489225e-01	3.300000e+00	
1016	1.076465e+09	9.389576e-01	3.300000e+00	
1017	1.081434e+09	9.291057e-01	3.300000e+00	
1018	1.086426e+09	9.193656e-01	3.300000e+00	
1019	1.091440e+09	9.097359e-01	3.300000e+00	
1020	1.096478e+09	9.002153e-01	3.300000e+00	
1021	1.101539e+09	8.908024e-01	3.300000e+00	
1022	1.106624e+09	8.814960e-01	3.300000e+00	
1023	1.111732e+09	8.722948e-01	3.300000e+00	
1024	1.116863e+09	8.631974e-01	3.300000e+00	
1025	1.122018e+09	8.542028e-01	3.300000e+00	
1026	1.127197e+09	8.453095e-01	3.300000e+00	
1027	1.132400e+09	8.365165e-01	3.300000e+00	
1028	1.137627e+09	8.278224e-01	3.300000e+00	
1029	1.142878e+09	8.192261e-01	3.300000e+00	
1030	1.148154e+09	8.107264e-01	3.300000e+00	
1031	1.153453e+09	8.023221e-01	3.300000e+00	
1032	1.158777e+09	7.940120e-01	3.300000e+00	
1033	1.164126e+09	7.857951e-01	3.300000e+00	
1034	1.169499e+09	7.776702e-01	3.300000e+00	
1035	1.174898e+09	7.696362e-01	3.300000e+00	
1036	1.180321e+09	7.616919e-01	3.300000e+00	
1037	1.185769e+09	7.538363e-01	3.300000e+00	
1038	1.191242e+09	7.460684e-01	3.300000e+00	
1039	1.196741e+09	7.383870e-01	3.300000e+00	
1040	1.202264e+09	7.307911e-01	3.300000e+00	

Index   frequency       vm(antenna)     vm(source)      
--------------------------------------------------------------------------------
1041	1.207814e+09	7.232796e-01	3.300000e+00	
1042	1.213389e+09	7.158516e-01	3.300000e+00	
1043	1.218990e+09	7.085060e-01	3.300000e+00	
1044	1.224616e+09	7.012419e-01	3.300000e+00	
1045	1.230269e+09	6.940582e-01	3.300000e+00	
1046	1.235947e+09	6.869540e-01	3.300000e+00	
1047	1.241652e+09	6.799282e-01	3.300000e+00	
1048	1.247384e+09	6.729801e-01	3.300000e+00	
1049	1.253141e+09	6.661086e-01	3.300000e+00	
1050	1.258925e+09	6.593127e-01	3.300000e+00	
1051	1.264736e+09	6.525917e-01	3.300000e+00	
1052	1.270574e+09	6.459445e-01	3.300000e+00	
1053	1.276439e+09	6.393704e-01	3.300000e+00	
1054	1.282331e+09	6.328683e-01	3.300000e+00	
1055	1.288250e+09	6.264375e-01	3.300000e+00	
1056	1.294196e+09	6.200771e-01	3.300000e+00	
1057	1.300170e+09	6.137863e-01	3.300000e+00	
1058	1.306171e+09	6.075641e-01	3.300000e+00	
1059	1.312200e+09	6.014099e-01	3.300000e+00	
1060	1.318257e+09	5.953227e-01	3.300000e+00	
1061	1.324342e+09	5.893018e-01	3.300000e+00	
1062	1.330454e+09	5.833464e-01	3.300000e+00	
1063	1.336596e+09	5.774556e-01	3.300000e+00	
1064	1.342765e+09	5.716288e-01	3.300000e+00	
1065	1.348963e+09	5.658652e-01	3.300000e+00	
1066	1.355189e+09	5.601639e-01	3.300000e+00	
1067	1.361445e+09	5.545244e-01	3.300000e+00	
1068	1.367729e+09	5.489457e-01	3.300000e+00	
1069	1.374042e+09	5.434273e-01	3.300000e+00	
1070	1.380384e+09	5.379684e-01	3.300000e+00	
1071	1.386756e+09	5.325683e-01	3.300000e+00	
1072	1.393157e+09	5.272262e-01	3.300000e+00	
1073	1.399587e+09	5.219416e-01	3.300000e+00	
1074	1.406048e+09	5.167137e-01	3.300000e+00	
1075	1.412538e+09	5.115419e-01	3.300000e+00	
1076	1.419058e+09	5.064254e-01	3.300000e+00	
1077	1.425608e+09	5.013638e-01	3.300000e+00	
1078	1.432188e+09	4.963562e-01	3.300000e+00	
1079	1.438799e+09	4.914021e-01	3.300000e+00	
1080	1.445440e+09	4.865008e-01	3.300000e+00	
1081	1.452112e+09	4.816518e-01	3.300000e+00	
1082	1.458814e+09	4.768543e-01	3.300000e+00	
1083	1.465548e+09	4.721079e-01	3.300000e+00	
1084	1.472313e+09	4.674119e-01	3.300000e+00	
1085	1.479108e+09	4.627658e-01	3.300000e+00	
1086	1.485936e+09	4.581688e-01	3.300000e+00	
1087	1.492794e+09	4.536206e-01	3.300000e+00	
1088	1.499685e+09	4.491204e-01	3.300000e+00	
1089	1.506607e+09	4.446679e-01	3.300000e+00	
1090	1.513561e+09	4.402623e-01	3.300000e+00	
1091	1.520548e+09	4.359031e-01	3.300000e+00	
1092	1.527566e+09	4.315899e-01	3.300000e+00	
1093	1.534617e+09	4.273221e-01	3.300000e+00	
1094	1.541700e+09	4.230992e-01	3.300000e+00	
1095	1.548817e+09	4.189205e-01	3.300000e+00	
1096	1.555966e+09	4.147858e-01	3.300000e+00	
1097	1.563148e+09	4.106944e-01	3.300000e+00	
1098	1.570363e+09	4.066458e-01	3.300000e+00	

Index   frequency       vm(antenna)     vm(source)      
--------------------------------------------------------------------------------
1099	1.577611e+09	4.026396e-01	3.300000e+00	
1100	1.584893e+09	3.986752e-01	3.300000e+00	
1101	1.592209e+09	3.947522e-01	3.300000e+00	
1102	1.599558e+09	3.908702e-01	3.300000e+00	
1103	1.606941e+09	3.870285e-01	3.300000e+00	
1104	1.614359e+09	3.832269e-01	3.300000e+00	
1105	1.621810e+09	3.794648e-01	3.300000e+00	
1106	1.629296e+09	3.757418e-01	3.300000e+00	
1107	1.636817e+09	3.720575e-01	3.300000e+00	
1108	1.644372e+09	3.684113e-01	3.300000e+00	
1109	1.651962e+09	3.648030e-01	3.300000e+00	
1110	1.659587e+09	3.612319e-01	3.300000e+00	
1111	1.667247e+09	3.576978e-01	3.300000e+00	
1112	1.674943e+09	3.542003e-01	3.300000e+00	
1113	1.682674e+09	3.507388e-01	3.300000e+00	
1114	1.690441e+09	3.473130e-01	3.300000e+00	
1115	1.698244e+09	3.439225e-01	3.300000e+00	
1116	1.706082e+09	3.405669e-01	3.300000e+00	
1117	1.713957e+09	3.372458e-01	3.300000e+00	
1118	1.721869e+09	3.339589e-01	3.300000e+00	
1119	1.729816e+09	3.307056e-01	3.300000e+00	
1120	1.737801e+09	3.274858e-01	3.300000e+00	
1121	1.745822e+09	3.242989e-01	3.300000e+00	
1122	1.753881e+09	3.211447e-01	3.300000e+00	
1123	1.761976e+09	3.180228e-01	3.300000e+00	
1124	1.770109e+09	3.149327e-01	3.300000e+00	
1125	1.778279e+09	3.118742e-01	3.300000e+00	
1126	1.786488e+09	3.088469e-01	3.300000e+00	
1127	1.794734e+09	3.058505e-01	3.300000e+00	

                                 * spicenetlist
                                 AC Analysis  Sun Dec  3 20:40:02  2017
--------------------------------------------------------------------------------
Index   frequency       v_v1#branch                     
--------------------------------------------------------------------------------
0	1.000000e+07	-6.60319e-02,	-1.53407e-03	
1	1.004616e+07	-6.60322e-02,	-1.54115e-03	
2	1.009253e+07	-6.60325e-02,	-1.54826e-03	
3	1.013911e+07	-6.60328e-02,	-1.55540e-03	
4	1.018591e+07	-6.60331e-02,	-1.56258e-03	
5	1.023293e+07	-6.60334e-02,	-1.56979e-03	
6	1.028016e+07	-6.60337e-02,	-1.57703e-03	
7	1.032761e+07	-6.60340e-02,	-1.58431e-03	
8	1.037528e+07	-6.60343e-02,	-1.59162e-03	
9	1.042317e+07	-6.60347e-02,	-1.59896e-03	
10	1.047129e+07	-6.60350e-02,	-1.60634e-03	
11	1.051962e+07	-6.60353e-02,	-1.61375e-03	
12	1.056818e+07	-6.60356e-02,	-1.62120e-03	
13	1.061696e+07	-6.60360e-02,	-1.62868e-03	
14	1.066596e+07	-6.60363e-02,	-1.63619e-03	
15	1.071519e+07	-6.60366e-02,	-1.64374e-03	
16	1.076465e+07	-6.60370e-02,	-1.65133e-03	
17	1.081434e+07	-6.60373e-02,	-1.65895e-03	
18	1.086426e+07	-6.60377e-02,	-1.66660e-03	
19	1.091440e+07	-6.60380e-02,	-1.67429e-03	
20	1.096478e+07	-6.60384e-02,	-1.68201e-03	
21	1.101539e+07	-6.60387e-02,	-1.68977e-03	
22	1.106624e+07	-6.60391e-02,	-1.69757e-03	
23	1.111732e+07	-6.60394e-02,	-1.70540e-03	
24	1.116863e+07	-6.60398e-02,	-1.71327e-03	
25	1.122018e+07	-6.60402e-02,	-1.72117e-03	
26	1.127197e+07	-6.60405e-02,	-1.72912e-03	
27	1.132400e+07	-6.60409e-02,	-1.73709e-03	
28	1.137627e+07	-6.60413e-02,	-1.74511e-03	
29	1.142878e+07	-6.60417e-02,	-1.75316e-03	
30	1.148154e+07	-6.60421e-02,	-1.76125e-03	
31	1.153453e+07	-6.60424e-02,	-1.76937e-03	
32	1.158777e+07	-6.60428e-02,	-1.77754e-03	
33	1.164126e+07	-6.60432e-02,	-1.78574e-03	
34	1.169499e+07	-6.60436e-02,	-1.79397e-03	
35	1.174898e+07	-6.60440e-02,	-1.80225e-03	
36	1.180321e+07	-6.60444e-02,	-1.81057e-03	
37	1.185769e+07	-6.60449e-02,	-1.81892e-03	
38	1.191242e+07	-6.60453e-02,	-1.82731e-03	
39	1.196741e+07	-6.60457e-02,	-1.83574e-03	
40	1.202264e+07	-6.60461e-02,	-1.84421e-03	
41	1.207814e+07	-6.60465e-02,	-1.85272e-03	
42	1.213389e+07	-6.60470e-02,	-1.86126e-03	
43	1.218990e+07	-6.60474e-02,	-1.86985e-03	
44	1.224616e+07	-6.60478e-02,	-1.87848e-03	
45	1.230269e+07	-6.60483e-02,	-1.88714e-03	
46	1.235947e+07	-6.60487e-02,	-1.89585e-03	
47	1.241652e+07	-6.60492e-02,	-1.90459e-03	
48	1.247384e+07	-6.60496e-02,	-1.91338e-03	
49	1.253141e+07	-6.60501e-02,	-1.92221e-03	
50	1.258925e+07	-6.60506e-02,	-1.93107e-03	
51	1.264736e+07	-6.60510e-02,	-1.93998e-03	
52	1.270574e+07	-6.60515e-02,	-1.94893e-03	
53	1.276439e+07	-6.60520e-02,	-1.95792e-03	
54	1.282331e+07	-6.60525e-02,	-1.96695e-03	

Index   frequency       v_v1#branch                     
--------------------------------------------------------------------------------
55	1.288250e+07	-6.60529e-02,	-1.97603e-03	
56	1.294196e+07	-6.60534e-02,	-1.98514e-03	
57	1.300170e+07	-6.60539e-02,	-1.99430e-03	
58	1.306171e+07	-6.60544e-02,	-2.00350e-03	
59	1.312200e+07	-6.60549e-02,	-2.01274e-03	
60	1.318257e+07	-6.60554e-02,	-2.02203e-03	
61	1.324342e+07	-6.60560e-02,	-2.03135e-03	
62	1.330454e+07	-6.60565e-02,	-2.04072e-03	
63	1.336596e+07	-6.60570e-02,	-2.05014e-03	
64	1.342765e+07	-6.60575e-02,	-2.05959e-03	
65	1.348963e+07	-6.60581e-02,	-2.06909e-03	
66	1.355189e+07	-6.60586e-02,	-2.07864e-03	
67	1.361445e+07	-6.60591e-02,	-2.08823e-03	
68	1.367729e+07	-6.60597e-02,	-2.09786e-03	
69	1.374042e+07	-6.60602e-02,	-2.10753e-03	
70	1.380384e+07	-6.60608e-02,	-2.11726e-03	
71	1.386756e+07	-6.60614e-02,	-2.12702e-03	
72	1.393157e+07	-6.60619e-02,	-2.13683e-03	
73	1.399587e+07	-6.60625e-02,	-2.14669e-03	
74	1.406048e+07	-6.60631e-02,	-2.15659e-03	
75	1.412538e+07	-6.60637e-02,	-2.16654e-03	
76	1.419058e+07	-6.60643e-02,	-2.17653e-03	
77	1.425608e+07	-6.60648e-02,	-2.18657e-03	
78	1.432188e+07	-6.60654e-02,	-2.19665e-03	
79	1.438799e+07	-6.60661e-02,	-2.20678e-03	
80	1.445440e+07	-6.60667e-02,	-2.21696e-03	
81	1.452112e+07	-6.60673e-02,	-2.22719e-03	
82	1.458814e+07	-6.60679e-02,	-2.23746e-03	
83	1.465548e+07	-6.60685e-02,	-2.24778e-03	
84	1.472313e+07	-6.60692e-02,	-2.25815e-03	
85	1.479108e+07	-6.60698e-02,	-2.26856e-03	
86	1.485936e+07	-6.60705e-02,	-2.27902e-03	
87	1.492794e+07	-6.60711e-02,	-2.28954e-03	
88	1.499685e+07	-6.60718e-02,	-2.30009e-03	
89	1.506607e+07	-6.60724e-02,	-2.31070e-03	
90	1.513561e+07	-6.60731e-02,	-2.32136e-03	
91	1.520548e+07	-6.60738e-02,	-2.33206e-03	
92	1.527566e+07	-6.60745e-02,	-2.34282e-03	
93	1.534617e+07	-6.60751e-02,	-2.35362e-03	
94	1.541700e+07	-6.60758e-02,	-2.36448e-03	
95	1.548817e+07	-6.60765e-02,	-2.37538e-03	
96	1.555966e+07	-6.60773e-02,	-2.38634e-03	
97	1.563148e+07	-6.60780e-02,	-2.39734e-03	
98	1.570363e+07	-6.60787e-02,	-2.40840e-03	
99	1.577611e+07	-6.60794e-02,	-2.41950e-03	
100	1.584893e+07	-6.60802e-02,	-2.43066e-03	
101	1.592209e+07	-6.60809e-02,	-2.44187e-03	
102	1.599558e+07	-6.60816e-02,	-2.45313e-03	
103	1.606941e+07	-6.60824e-02,	-2.46444e-03	
104	1.614359e+07	-6.60832e-02,	-2.47581e-03	
105	1.621810e+07	-6.60839e-02,	-2.48723e-03	
106	1.629296e+07	-6.60847e-02,	-2.49869e-03	
107	1.636817e+07	-6.60855e-02,	-2.51022e-03	
108	1.644372e+07	-6.60863e-02,	-2.52179e-03	
109	1.651962e+07	-6.60871e-02,	-2.53342e-03	
110	1.659587e+07	-6.60879e-02,	-2.54510e-03	
111	1.667247e+07	-6.60887e-02,	-2.55684e-03	
112	1.674943e+07	-6.60895e-02,	-2.56863e-03	

Index   frequency       v_v1#branch                     
--------------------------------------------------------------------------------
113	1.682674e+07	-6.60904e-02,	-2.58047e-03	
114	1.690441e+07	-6.60912e-02,	-2.59237e-03	
115	1.698244e+07	-6.60920e-02,	-2.60432e-03	
116	1.706082e+07	-6.60929e-02,	-2.61633e-03	
117	1.713957e+07	-6.60937e-02,	-2.62839e-03	
118	1.721869e+07	-6.60946e-02,	-2.64051e-03	
119	1.729816e+07	-6.60955e-02,	-2.65269e-03	
120	1.737801e+07	-6.60964e-02,	-2.66492e-03	
121	1.745822e+07	-6.60973e-02,	-2.67720e-03	
122	1.753881e+07	-6.60982e-02,	-2.68955e-03	
123	1.761976e+07	-6.60991e-02,	-2.70195e-03	
124	1.770109e+07	-6.61000e-02,	-2.71441e-03	
125	1.778279e+07	-6.61009e-02,	-2.72692e-03	
126	1.786488e+07	-6.61019e-02,	-2.73949e-03	
127	1.794734e+07	-6.61028e-02,	-2.75212e-03	
128	1.803018e+07	-6.61038e-02,	-2.76481e-03	
129	1.811340e+07	-6.61047e-02,	-2.77756e-03	
130	1.819701e+07	-6.61057e-02,	-2.79036e-03	
131	1.828100e+07	-6.61067e-02,	-2.80323e-03	
132	1.836538e+07	-6.61076e-02,	-2.81615e-03	
133	1.845015e+07	-6.61086e-02,	-2.82913e-03	
134	1.853532e+07	-6.61097e-02,	-2.84217e-03	
135	1.862087e+07	-6.61107e-02,	-2.85528e-03	
136	1.870682e+07	-6.61117e-02,	-2.86844e-03	
137	1.879317e+07	-6.61127e-02,	-2.88166e-03	
138	1.887991e+07	-6.61138e-02,	-2.89494e-03	
139	1.896706e+07	-6.61148e-02,	-2.90829e-03	
140	1.905461e+07	-6.61159e-02,	-2.92169e-03	
141	1.914256e+07	-6.61170e-02,	-2.93516e-03	
142	1.923092e+07	-6.61180e-02,	-2.94869e-03	
143	1.931968e+07	-6.61191e-02,	-2.96228e-03	
144	1.940886e+07	-6.61202e-02,	-2.97594e-03	
145	1.949845e+07	-6.61214e-02,	-2.98966e-03	
146	1.958845e+07	-6.61225e-02,	-3.00344e-03	
147	1.967886e+07	-6.61236e-02,	-3.01728e-03	
148	1.976970e+07	-6.61248e-02,	-3.03119e-03	
149	1.986095e+07	-6.61259e-02,	-3.04516e-03	
150	1.995262e+07	-6.61271e-02,	-3.05919e-03	
151	2.004472e+07	-6.61283e-02,	-3.07329e-03	
152	2.013724e+07	-6.61294e-02,	-3.08746e-03	
153	2.023019e+07	-6.61306e-02,	-3.10169e-03	
154	2.032357e+07	-6.61319e-02,	-3.11598e-03	
155	2.041738e+07	-6.61331e-02,	-3.13034e-03	
156	2.051162e+07	-6.61343e-02,	-3.14477e-03	
157	2.060630e+07	-6.61355e-02,	-3.15926e-03	
158	2.070141e+07	-6.61368e-02,	-3.17382e-03	
159	2.079697e+07	-6.61381e-02,	-3.18845e-03	
160	2.089296e+07	-6.61393e-02,	-3.20314e-03	
161	2.098940e+07	-6.61406e-02,	-3.21790e-03	
162	2.108628e+07	-6.61419e-02,	-3.23273e-03	
163	2.118361e+07	-6.61433e-02,	-3.24763e-03	
164	2.128139e+07	-6.61446e-02,	-3.26259e-03	
165	2.137962e+07	-6.61459e-02,	-3.27763e-03	
166	2.147830e+07	-6.61473e-02,	-3.29273e-03	
167	2.157744e+07	-6.61486e-02,	-3.30790e-03	
168	2.167704e+07	-6.61500e-02,	-3.32314e-03	
169	2.177710e+07	-6.61514e-02,	-3.33845e-03	
170	2.187762e+07	-6.61528e-02,	-3.35384e-03	

Index   frequency       v_v1#branch                     
--------------------------------------------------------------------------------
171	2.197860e+07	-6.61542e-02,	-3.36929e-03	
172	2.208005e+07	-6.61557e-02,	-3.38481e-03	
173	2.218196e+07	-6.61571e-02,	-3.40041e-03	
174	2.228435e+07	-6.61585e-02,	-3.41608e-03	
175	2.238721e+07	-6.61600e-02,	-3.43181e-03	
176	2.249055e+07	-6.61615e-02,	-3.44763e-03	
177	2.259436e+07	-6.61630e-02,	-3.46351e-03	
178	2.269865e+07	-6.61645e-02,	-3.47947e-03	
179	2.280342e+07	-6.61660e-02,	-3.49549e-03	
180	2.290868e+07	-6.61676e-02,	-3.51160e-03	
181	2.301442e+07	-6.61691e-02,	-3.52778e-03	
182	2.312065e+07	-6.61707e-02,	-3.54403e-03	
183	2.322737e+07	-6.61723e-02,	-3.56035e-03	
184	2.333458e+07	-6.61739e-02,	-3.57675e-03	
185	2.344229e+07	-6.61755e-02,	-3.59323e-03	
186	2.355049e+07	-6.61771e-02,	-3.60978e-03	
187	2.365920e+07	-6.61787e-02,	-3.62641e-03	
188	2.376840e+07	-6.61804e-02,	-3.64311e-03	
189	2.387811e+07	-6.61821e-02,	-3.65989e-03	
190	2.398833e+07	-6.61838e-02,	-3.67675e-03	
191	2.409905e+07	-6.61855e-02,	-3.69368e-03	
192	2.421029e+07	-6.61872e-02,	-3.71070e-03	
193	2.432204e+07	-6.61889e-02,	-3.72779e-03	
194	2.443431e+07	-6.61907e-02,	-3.74495e-03	
195	2.454709e+07	-6.61924e-02,	-3.76220e-03	
196	2.466039e+07	-6.61942e-02,	-3.77953e-03	
197	2.477422e+07	-6.61960e-02,	-3.79693e-03	
198	2.488857e+07	-6.61978e-02,	-3.81442e-03	
199	2.500345e+07	-6.61997e-02,	-3.83199e-03	
200	2.511886e+07	-6.62015e-02,	-3.84963e-03	
201	2.523481e+07	-6.62034e-02,	-3.86736e-03	
202	2.535129e+07	-6.62053e-02,	-3.88517e-03	
203	2.546830e+07	-6.62072e-02,	-3.90306e-03	
204	2.558586e+07	-6.62091e-02,	-3.92103e-03	
205	2.570396e+07	-6.62110e-02,	-3.93908e-03	
206	2.582260e+07	-6.62130e-02,	-3.95722e-03	
207	2.594179e+07	-6.62149e-02,	-3.97544e-03	
208	2.606154e+07	-6.62169e-02,	-3.99374e-03	
209	2.618183e+07	-6.62190e-02,	-4.01213e-03	
210	2.630268e+07	-6.62210e-02,	-4.03060e-03	
211	2.642409e+07	-6.62230e-02,	-4.04916e-03	
212	2.654606e+07	-6.62251e-02,	-4.06780e-03	
213	2.666859e+07	-6.62272e-02,	-4.08653e-03	
214	2.679168e+07	-6.62293e-02,	-4.10534e-03	
215	2.691535e+07	-6.62314e-02,	-4.12424e-03	
216	2.703958e+07	-6.62336e-02,	-4.14322e-03	
217	2.716439e+07	-6.62357e-02,	-4.16230e-03	
218	2.728978e+07	-6.62379e-02,	-4.18145e-03	
219	2.741574e+07	-6.62401e-02,	-4.20070e-03	
220	2.754229e+07	-6.62423e-02,	-4.22004e-03	
221	2.766942e+07	-6.62446e-02,	-4.23946e-03	
222	2.779713e+07	-6.62468e-02,	-4.25897e-03	
223	2.792544e+07	-6.62491e-02,	-4.27857e-03	
224	2.805434e+07	-6.62514e-02,	-4.29827e-03	
225	2.818383e+07	-6.62538e-02,	-4.31805e-03	
226	2.831392e+07	-6.62561e-02,	-4.33792e-03	
227	2.844461e+07	-6.62585e-02,	-4.35788e-03	
228	2.857591e+07	-6.62609e-02,	-4.37793e-03	

Index   frequency       v_v1#branch                     
--------------------------------------------------------------------------------
229	2.870781e+07	-6.62633e-02,	-4.39808e-03	
230	2.884032e+07	-6.62658e-02,	-4.41832e-03	
231	2.897344e+07	-6.62682e-02,	-4.43865e-03	
232	2.910717e+07	-6.62707e-02,	-4.45907e-03	
233	2.924152e+07	-6.62732e-02,	-4.47959e-03	
234	2.937650e+07	-6.62758e-02,	-4.50020e-03	
235	2.951209e+07	-6.62783e-02,	-4.52090e-03	
236	2.964831e+07	-6.62809e-02,	-4.54170e-03	
237	2.978516e+07	-6.62835e-02,	-4.56260e-03	
238	2.992265e+07	-6.62861e-02,	-4.58359e-03	
239	3.006076e+07	-6.62888e-02,	-4.60467e-03	
240	3.019952e+07	-6.62914e-02,	-4.62586e-03	
241	3.033891e+07	-6.62942e-02,	-4.64713e-03	
242	3.047895e+07	-6.62969e-02,	-4.66851e-03	
243	3.061963e+07	-6.62996e-02,	-4.68998e-03	
244	3.076097e+07	-6.63024e-02,	-4.71156e-03	
245	3.090295e+07	-6.63052e-02,	-4.73323e-03	
246	3.104560e+07	-6.63080e-02,	-4.75499e-03	
247	3.118890e+07	-6.63109e-02,	-4.77686e-03	
248	3.133286e+07	-6.63138e-02,	-4.79883e-03	
249	3.147748e+07	-6.63167e-02,	-4.82090e-03	
250	3.162278e+07	-6.63196e-02,	-4.84307e-03	
251	3.176874e+07	-6.63226e-02,	-4.86534e-03	
252	3.191538e+07	-6.63256e-02,	-4.88771e-03	
253	3.206269e+07	-6.63286e-02,	-4.91019e-03	
254	3.221069e+07	-6.63317e-02,	-4.93276e-03	
255	3.235937e+07	-6.63347e-02,	-4.95544e-03	
256	3.250873e+07	-6.63378e-02,	-4.97823e-03	
257	3.265878e+07	-6.63410e-02,	-5.00111e-03	
258	3.280953e+07	-6.63441e-02,	-5.02410e-03	
259	3.296097e+07	-6.63473e-02,	-5.04720e-03	
260	3.311311e+07	-6.63505e-02,	-5.07040e-03	
261	3.326596e+07	-6.63538e-02,	-5.09371e-03	
262	3.341950e+07	-6.63571e-02,	-5.11712e-03	
263	3.357376e+07	-6.63604e-02,	-5.14064e-03	
264	3.372873e+07	-6.63637e-02,	-5.16427e-03	
265	3.388442e+07	-6.63671e-02,	-5.18800e-03	
266	3.404082e+07	-6.63705e-02,	-5.21185e-03	
267	3.419794e+07	-6.63739e-02,	-5.23580e-03	
268	3.435579e+07	-6.63774e-02,	-5.25986e-03	
269	3.451437e+07	-6.63809e-02,	-5.28403e-03	
270	3.467369e+07	-6.63845e-02,	-5.30831e-03	
271	3.483373e+07	-6.63880e-02,	-5.33270e-03	
272	3.499452e+07	-6.63916e-02,	-5.35720e-03	
273	3.515604e+07	-6.63953e-02,	-5.38182e-03	
274	3.531832e+07	-6.63989e-02,	-5.40654e-03	
275	3.548134e+07	-6.64026e-02,	-5.43138e-03	
276	3.564511e+07	-6.64064e-02,	-5.45633e-03	
277	3.580964e+07	-6.64101e-02,	-5.48139e-03	
278	3.597493e+07	-6.64139e-02,	-5.50657e-03	
279	3.614099e+07	-6.64178e-02,	-5.53187e-03	
280	3.630781e+07	-6.64217e-02,	-5.55727e-03	
281	3.647539e+07	-6.64256e-02,	-5.58280e-03	
282	3.664376e+07	-6.64295e-02,	-5.60844e-03	
283	3.681290e+07	-6.64335e-02,	-5.63419e-03	
284	3.698282e+07	-6.64375e-02,	-5.66006e-03	
285	3.715352e+07	-6.64416e-02,	-5.68605e-03	
286	3.732502e+07	-6.64457e-02,	-5.71216e-03	

Index   frequency       v_v1#branch                     
--------------------------------------------------------------------------------
287	3.749730e+07	-6.64498e-02,	-5.73839e-03	
288	3.767038e+07	-6.64540e-02,	-5.76474e-03	
289	3.784426e+07	-6.64582e-02,	-5.79120e-03	
290	3.801894e+07	-6.64625e-02,	-5.81779e-03	
291	3.819443e+07	-6.64668e-02,	-5.84449e-03	
292	3.837072e+07	-6.64711e-02,	-5.87132e-03	
293	3.854784e+07	-6.64755e-02,	-5.89827e-03	
294	3.872576e+07	-6.64799e-02,	-5.92534e-03	
295	3.890451e+07	-6.64843e-02,	-5.95254e-03	
296	3.908409e+07	-6.64888e-02,	-5.97986e-03	
297	3.926449e+07	-6.64934e-02,	-6.00730e-03	
298	3.944573e+07	-6.64979e-02,	-6.03486e-03	
299	3.962780e+07	-6.65026e-02,	-6.06255e-03	
300	3.981072e+07	-6.65072e-02,	-6.09037e-03	
301	3.999447e+07	-6.65119e-02,	-6.11831e-03	
302	4.017908e+07	-6.65167e-02,	-6.14638e-03	
303	4.036454e+07	-6.65215e-02,	-6.17458e-03	
304	4.055085e+07	-6.65263e-02,	-6.20290e-03	
305	4.073803e+07	-6.65312e-02,	-6.23136e-03	
306	4.092607e+07	-6.65362e-02,	-6.25994e-03	
307	4.111497e+07	-6.65411e-02,	-6.28865e-03	
308	4.130475e+07	-6.65462e-02,	-6.31749e-03	
309	4.149540e+07	-6.65512e-02,	-6.34646e-03	
310	4.168694e+07	-6.65564e-02,	-6.37556e-03	
311	4.187936e+07	-6.65615e-02,	-6.40479e-03	
312	4.207266e+07	-6.65667e-02,	-6.43416e-03	
313	4.226686e+07	-6.65720e-02,	-6.46366e-03	
314	4.246196e+07	-6.65773e-02,	-6.49329e-03	
315	4.265795e+07	-6.65827e-02,	-6.52305e-03	
316	4.285485e+07	-6.65881e-02,	-6.55295e-03	
317	4.305266e+07	-6.65936e-02,	-6.58299e-03	
318	4.325138e+07	-6.65991e-02,	-6.61316e-03	
319	4.345102e+07	-6.66046e-02,	-6.64347e-03	
320	4.365158e+07	-6.66103e-02,	-6.67391e-03	
321	4.385307e+07	-6.66159e-02,	-6.70449e-03	
322	4.405549e+07	-6.66217e-02,	-6.73521e-03	
323	4.425884e+07	-6.66274e-02,	-6.76607e-03	
324	4.446313e+07	-6.66333e-02,	-6.79707e-03	
325	4.466836e+07	-6.66391e-02,	-6.82820e-03	
326	4.487454e+07	-6.66451e-02,	-6.85948e-03	
327	4.508167e+07	-6.66511e-02,	-6.89090e-03	
328	4.528976e+07	-6.66571e-02,	-6.92246e-03	
329	4.549881e+07	-6.66632e-02,	-6.95416e-03	
330	4.570882e+07	-6.66694e-02,	-6.98600e-03	
331	4.591980e+07	-6.66756e-02,	-7.01799e-03	
332	4.613176e+07	-6.66819e-02,	-7.05012e-03	
333	4.634469e+07	-6.66883e-02,	-7.08240e-03	
334	4.655861e+07	-6.66946e-02,	-7.11482e-03	
335	4.677351e+07	-6.67011e-02,	-7.14739e-03	
336	4.698941e+07	-6.67076e-02,	-7.18010e-03	
337	4.720630e+07	-6.67142e-02,	-7.21296e-03	
338	4.742420e+07	-6.67208e-02,	-7.24597e-03	
339	4.764310e+07	-6.67276e-02,	-7.27913e-03	
340	4.786301e+07	-6.67343e-02,	-7.31243e-03	
341	4.808393e+07	-6.67411e-02,	-7.34589e-03	
342	4.830588e+07	-6.67480e-02,	-7.37949e-03	
343	4.852885e+07	-6.67550e-02,	-7.41325e-03	
344	4.875285e+07	-6.67620e-02,	-7.44716e-03	

Index   frequency       v_v1#branch                     
--------------------------------------------------------------------------------
345	4.897788e+07	-6.67691e-02,	-7.48122e-03	
346	4.920395e+07	-6.67763e-02,	-7.51543e-03	
347	4.943107e+07	-6.67835e-02,	-7.54980e-03	
348	4.965923e+07	-6.67908e-02,	-7.58432e-03	
349	4.988845e+07	-6.67981e-02,	-7.61899e-03	
350	5.011872e+07	-6.68056e-02,	-7.65382e-03	
351	5.035006e+07	-6.68130e-02,	-7.68881e-03	
352	5.058247e+07	-6.68206e-02,	-7.72395e-03	
353	5.081594e+07	-6.68283e-02,	-7.75925e-03	
354	5.105050e+07	-6.68360e-02,	-7.79471e-03	
355	5.128614e+07	-6.68437e-02,	-7.83033e-03	
356	5.152286e+07	-6.68516e-02,	-7.86610e-03	
357	5.176068e+07	-6.68595e-02,	-7.90204e-03	
358	5.199960e+07	-6.68675e-02,	-7.93813e-03	
359	5.223962e+07	-6.68756e-02,	-7.97439e-03	
360	5.248075e+07	-6.68837e-02,	-8.01081e-03	
361	5.272299e+07	-6.68920e-02,	-8.04739e-03	
362	5.296634e+07	-6.69003e-02,	-8.08414e-03	
363	5.321083e+07	-6.69087e-02,	-8.12104e-03	
364	5.345644e+07	-6.69171e-02,	-8.15812e-03	
365	5.370318e+07	-6.69257e-02,	-8.19536e-03	
366	5.395106e+07	-6.69343e-02,	-8.23276e-03	
367	5.420009e+07	-6.69430e-02,	-8.27033e-03	
368	5.445027e+07	-6.69518e-02,	-8.30807e-03	
369	5.470160e+07	-6.69606e-02,	-8.34598e-03	
370	5.495409e+07	-6.69696e-02,	-8.38405e-03	
371	5.520774e+07	-6.69786e-02,	-8.42230e-03	
372	5.546257e+07	-6.69877e-02,	-8.46071e-03	
373	5.571857e+07	-6.69969e-02,	-8.49930e-03	
374	5.597576e+07	-6.70062e-02,	-8.53805e-03	
375	5.623413e+07	-6.70156e-02,	-8.57698e-03	
376	5.649370e+07	-6.70250e-02,	-8.61608e-03	
377	5.675446e+07	-6.70346e-02,	-8.65536e-03	
378	5.701643e+07	-6.70442e-02,	-8.69481e-03	
379	5.727960e+07	-6.70540e-02,	-8.73443e-03	
380	5.754399e+07	-6.70638e-02,	-8.77423e-03	
381	5.780960e+07	-6.70737e-02,	-8.81421e-03	
382	5.807644e+07	-6.70837e-02,	-8.85436e-03	
383	5.834451e+07	-6.70938e-02,	-8.89469e-03	
384	5.861382e+07	-6.71040e-02,	-8.93520e-03	
385	5.888437e+07	-6.71143e-02,	-8.97588e-03	
386	5.915616e+07	-6.71247e-02,	-9.01675e-03	
387	5.942922e+07	-6.71352e-02,	-9.05780e-03	
388	5.970353e+07	-6.71458e-02,	-9.09903e-03	
389	5.997911e+07	-6.71565e-02,	-9.14044e-03	
390	6.025596e+07	-6.71672e-02,	-9.18204e-03	
391	6.053409e+07	-6.71781e-02,	-9.22381e-03	
392	6.081350e+07	-6.71891e-02,	-9.26578e-03	
393	6.109420e+07	-6.72002e-02,	-9.30792e-03	
394	6.137620e+07	-6.72114e-02,	-9.35025e-03	
395	6.165950e+07	-6.72227e-02,	-9.39277e-03	
396	6.194411e+07	-6.72341e-02,	-9.43548e-03	
397	6.223003e+07	-6.72456e-02,	-9.47837e-03	
398	6.251727e+07	-6.72573e-02,	-9.52145e-03	
399	6.280584e+07	-6.72690e-02,	-9.56472e-03	
400	6.309573e+07	-6.72808e-02,	-9.60818e-03	
401	6.338697e+07	-6.72928e-02,	-9.65184e-03	
402	6.367955e+07	-6.73049e-02,	-9.69568e-03	

Index   frequency       v_v1#branch                     
--------------------------------------------------------------------------------
403	6.397348e+07	-6.73170e-02,	-9.73971e-03	
404	6.426877e+07	-6.73293e-02,	-9.78394e-03	
405	6.456542e+07	-6.73417e-02,	-9.82836e-03	
406	6.486344e+07	-6.73543e-02,	-9.87298e-03	
407	6.516284e+07	-6.73669e-02,	-9.91779e-03	
408	6.546362e+07	-6.73797e-02,	-9.96280e-03	
409	6.576578e+07	-6.73926e-02,	-1.00080e-02	
410	6.606934e+07	-6.74056e-02,	-1.00534e-02	
411	6.637431e+07	-6.74187e-02,	-1.00990e-02	
412	6.668068e+07	-6.74320e-02,	-1.01448e-02	
413	6.698846e+07	-6.74453e-02,	-1.01908e-02	
414	6.729767e+07	-6.74589e-02,	-1.02370e-02	
415	6.760830e+07	-6.74725e-02,	-1.02834e-02	
416	6.792036e+07	-6.74862e-02,	-1.03300e-02	
417	6.823387e+07	-6.75001e-02,	-1.03768e-02	
418	6.854882e+07	-6.75142e-02,	-1.04238e-02	
419	6.886523e+07	-6.75283e-02,	-1.04710e-02	
420	6.918310e+07	-6.75426e-02,	-1.05184e-02	
421	6.950243e+07	-6.75570e-02,	-1.05660e-02	
422	6.982324e+07	-6.75716e-02,	-1.06139e-02	
423	7.014553e+07	-6.75863e-02,	-1.06619e-02	
424	7.046931e+07	-6.76011e-02,	-1.07101e-02	
425	7.079458e+07	-6.76161e-02,	-1.07586e-02	
426	7.112135e+07	-6.76312e-02,	-1.08073e-02	
427	7.144963e+07	-6.76465e-02,	-1.08561e-02	
428	7.177943e+07	-6.76619e-02,	-1.09052e-02	
429	7.211075e+07	-6.76774e-02,	-1.09545e-02	
430	7.244360e+07	-6.76931e-02,	-1.10040e-02	
431	7.277798e+07	-6.77090e-02,	-1.10537e-02	
432	7.311391e+07	-6.77250e-02,	-1.11036e-02	
433	7.345139e+07	-6.77411e-02,	-1.11538e-02	
434	7.379042e+07	-6.77574e-02,	-1.12041e-02	
435	7.413102e+07	-6.77739e-02,	-1.12547e-02	
436	7.447320e+07	-6.77905e-02,	-1.13055e-02	
437	7.481695e+07	-6.78073e-02,	-1.13565e-02	
438	7.516229e+07	-6.78242e-02,	-1.14078e-02	
439	7.550922e+07	-6.78413e-02,	-1.14592e-02	
440	7.585776e+07	-6.78585e-02,	-1.15109e-02	
441	7.620790e+07	-6.78759e-02,	-1.15628e-02	
442	7.655966e+07	-6.78935e-02,	-1.16149e-02	
443	7.691304e+07	-6.79113e-02,	-1.16672e-02	
444	7.726806e+07	-6.79292e-02,	-1.17198e-02	
445	7.762471e+07	-6.79473e-02,	-1.17725e-02	
446	7.798301e+07	-6.79655e-02,	-1.18255e-02	
447	7.834296e+07	-6.79839e-02,	-1.18788e-02	
448	7.870458e+07	-6.80025e-02,	-1.19322e-02	
449	7.906786e+07	-6.80213e-02,	-1.19859e-02	
450	7.943282e+07	-6.80403e-02,	-1.20398e-02	
451	7.979947e+07	-6.80594e-02,	-1.20939e-02	
452	8.016781e+07	-6.80787e-02,	-1.21483e-02	
453	8.053784e+07	-6.80982e-02,	-1.22029e-02	
454	8.090959e+07	-6.81179e-02,	-1.22577e-02	
455	8.128305e+07	-6.81378e-02,	-1.23128e-02	
456	8.165824e+07	-6.81579e-02,	-1.23680e-02	
457	8.203515e+07	-6.81781e-02,	-1.24236e-02	
458	8.241381e+07	-6.81986e-02,	-1.24793e-02	
459	8.279422e+07	-6.82192e-02,	-1.25353e-02	
460	8.317638e+07	-6.82401e-02,	-1.25915e-02	

Index   frequency       v_v1#branch                     
--------------------------------------------------------------------------------
461	8.356030e+07	-6.82611e-02,	-1.26480e-02	
462	8.394600e+07	-6.82823e-02,	-1.27046e-02	
463	8.433348e+07	-6.83038e-02,	-1.27616e-02	
464	8.472274e+07	-6.83254e-02,	-1.28187e-02	
465	8.511380e+07	-6.83473e-02,	-1.28761e-02	
466	8.550667e+07	-6.83693e-02,	-1.29338e-02	
467	8.590135e+07	-6.83916e-02,	-1.29916e-02	
468	8.629785e+07	-6.84141e-02,	-1.30498e-02	
469	8.669619e+07	-6.84368e-02,	-1.31081e-02	
470	8.709636e+07	-6.84597e-02,	-1.31667e-02	
471	8.749838e+07	-6.84828e-02,	-1.32256e-02	
472	8.790225e+07	-6.85062e-02,	-1.32846e-02	
473	8.830799e+07	-6.85298e-02,	-1.33440e-02	
474	8.871560e+07	-6.85536e-02,	-1.34035e-02	
475	8.912509e+07	-6.85776e-02,	-1.34634e-02	
476	8.953648e+07	-6.86019e-02,	-1.35234e-02	
477	8.994976e+07	-6.86264e-02,	-1.35837e-02	
478	9.036495e+07	-6.86511e-02,	-1.36443e-02	
479	9.078205e+07	-6.86760e-02,	-1.37051e-02	
480	9.120108e+07	-6.87012e-02,	-1.37661e-02	
481	9.162205e+07	-6.87267e-02,	-1.38274e-02	
482	9.204496e+07	-6.87524e-02,	-1.38890e-02	
483	9.246982e+07	-6.87783e-02,	-1.39508e-02	
484	9.289664e+07	-6.88045e-02,	-1.40128e-02	
485	9.332543e+07	-6.88309e-02,	-1.40751e-02	
486	9.375620e+07	-6.88576e-02,	-1.41377e-02	
487	9.418896e+07	-6.88846e-02,	-1.42005e-02	
488	9.462372e+07	-6.89118e-02,	-1.42636e-02	
489	9.506048e+07	-6.89392e-02,	-1.43269e-02	
490	9.549926e+07	-6.89669e-02,	-1.43904e-02	
491	9.594006e+07	-6.89949e-02,	-1.44543e-02	
492	9.638290e+07	-6.90232e-02,	-1.45183e-02	
493	9.682779e+07	-6.90517e-02,	-1.45827e-02	
494	9.727472e+07	-6.90805e-02,	-1.46472e-02	
495	9.772372e+07	-6.91096e-02,	-1.47121e-02	
496	9.817479e+07	-6.91390e-02,	-1.47772e-02	
497	9.862795e+07	-6.91686e-02,	-1.48426e-02	
498	9.908319e+07	-6.91986e-02,	-1.49082e-02	
499	9.954054e+07	-6.92288e-02,	-1.49740e-02	
500	1.000000e+08	-6.92593e-02,	-1.50402e-02	
501	1.004616e+08	-6.92901e-02,	-1.51066e-02	
502	1.009253e+08	-6.93212e-02,	-1.51732e-02	
503	1.013911e+08	-6.93526e-02,	-1.52402e-02	
504	1.018591e+08	-6.93843e-02,	-1.53073e-02	
505	1.023293e+08	-6.94163e-02,	-1.53748e-02	
506	1.028016e+08	-6.94486e-02,	-1.54425e-02	
507	1.032761e+08	-6.94813e-02,	-1.55104e-02	
508	1.037528e+08	-6.95142e-02,	-1.55787e-02	
509	1.042317e+08	-6.95475e-02,	-1.56472e-02	
510	1.047129e+08	-6.95810e-02,	-1.57159e-02	
511	1.051962e+08	-6.96150e-02,	-1.57849e-02	
512	1.056818e+08	-6.96492e-02,	-1.58542e-02	
513	1.061696e+08	-6.96838e-02,	-1.59238e-02	
514	1.066596e+08	-6.97187e-02,	-1.59936e-02	
515	1.071519e+08	-6.97539e-02,	-1.60637e-02	
516	1.076465e+08	-6.97895e-02,	-1.61340e-02	
517	1.081434e+08	-6.98254e-02,	-1.62046e-02	
518	1.086426e+08	-6.98617e-02,	-1.62755e-02	

Index   frequency       v_v1#branch                     
--------------------------------------------------------------------------------
519	1.091440e+08	-6.98983e-02,	-1.63466e-02	
520	1.096478e+08	-6.99353e-02,	-1.64181e-02	
521	1.101539e+08	-6.99726e-02,	-1.64897e-02	
522	1.106624e+08	-7.00103e-02,	-1.65617e-02	
523	1.111732e+08	-7.00484e-02,	-1.66339e-02	
524	1.116863e+08	-7.00869e-02,	-1.67064e-02	
525	1.122018e+08	-7.01257e-02,	-1.67791e-02	
526	1.127197e+08	-7.01649e-02,	-1.68521e-02	
527	1.132400e+08	-7.02044e-02,	-1.69254e-02	
528	1.137627e+08	-7.02444e-02,	-1.69990e-02	
529	1.142878e+08	-7.02847e-02,	-1.70728e-02	
530	1.148154e+08	-7.03255e-02,	-1.71469e-02	
531	1.153453e+08	-7.03666e-02,	-1.72213e-02	
532	1.158777e+08	-7.04081e-02,	-1.72959e-02	
533	1.164126e+08	-7.04501e-02,	-1.73708e-02	
534	1.169499e+08	-7.04924e-02,	-1.74459e-02	
535	1.174898e+08	-7.05352e-02,	-1.75214e-02	
536	1.180321e+08	-7.05784e-02,	-1.75971e-02	
537	1.185769e+08	-7.06220e-02,	-1.76730e-02	
538	1.191242e+08	-7.06660e-02,	-1.77493e-02	
539	1.196741e+08	-7.07105e-02,	-1.78258e-02	
540	1.202264e+08	-7.07554e-02,	-1.79026e-02	
541	1.207814e+08	-7.08007e-02,	-1.79796e-02	
542	1.213389e+08	-7.08465e-02,	-1.80569e-02	
543	1.218990e+08	-7.08927e-02,	-1.81345e-02	
544	1.224616e+08	-7.09394e-02,	-1.82123e-02	
545	1.230269e+08	-7.09865e-02,	-1.82904e-02	
546	1.235947e+08	-7.10341e-02,	-1.83688e-02	
547	1.241652e+08	-7.10821e-02,	-1.84475e-02	
548	1.247384e+08	-7.11307e-02,	-1.85264e-02	
549	1.253141e+08	-7.11797e-02,	-1.86055e-02	
550	1.258925e+08	-7.12292e-02,	-1.86850e-02	
551	1.264736e+08	-7.12792e-02,	-1.87647e-02	
552	1.270574e+08	-7.13296e-02,	-1.88446e-02	
553	1.276439e+08	-7.13806e-02,	-1.89249e-02	
554	1.282331e+08	-7.14321e-02,	-1.90054e-02	
555	1.288250e+08	-7.14840e-02,	-1.90861e-02	
556	1.294196e+08	-7.15365e-02,	-1.91671e-02	
557	1.300170e+08	-7.15895e-02,	-1.92484e-02	
558	1.306171e+08	-7.16430e-02,	-1.93299e-02	
559	1.312200e+08	-7.16971e-02,	-1.94117e-02	
560	1.318257e+08	-7.17517e-02,	-1.94938e-02	
561	1.324342e+08	-7.18068e-02,	-1.95761e-02	
562	1.330454e+08	-7.18625e-02,	-1.96587e-02	
563	1.336596e+08	-7.19187e-02,	-1.97415e-02	
564	1.342765e+08	-7.19755e-02,	-1.98245e-02	
565	1.348963e+08	-7.20328e-02,	-1.99079e-02	
566	1.355189e+08	-7.20907e-02,	-1.99915e-02	
567	1.361445e+08	-7.21492e-02,	-2.00753e-02	
568	1.367729e+08	-7.22082e-02,	-2.01594e-02	
[...]
712	2.654606e+08	-9.13910e-02,	-3.21358e-02	
713	2.666859e+08	-9.16429e-02,	-3.21681e-02	
714	2.679168e+08	-9.18972e-02,	-3.21982e-02	
715	2.691535e+08	-9.21538e-02,	-3.22260e-02	
716	2.703958e+08	-9.24128e-02,	-3.22514e-02	
717	2.716439e+08	-9.26742e-02,	-3.22745e-02	
718	2.728978e+08	-9.29380e-02,	-3.22951e-02	
719	2.741574e+08	-9.32042e-02,	-3.23131e-02	
720	2.754229e+08	-9.34728e-02,	-3.23286e-02	
721	2.766942e+08	-9.37437e-02,	-3.23414e-02	
722	2.779713e+08	-9.40172e-02,	-3.23514e-02	
723	2.792544e+08	-9.42930e-02,	-3.23586e-02	
724	2.805434e+08	-9.45712e-02,	-3.23630e-02	
725	2.818383e+08	-9.48519e-02,	-3.23644e-02	
726	2.831392e+08	-9.51350e-02,	-3.23627e-02	
727	2.844461e+08	-9.54206e-02,	-3.23579e-02	
728	2.857591e+08	-9.57085e-02,	-3.23499e-02	
729	2.870781e+08	-9.59989e-02,	-3.23386e-02	
730	2.884032e+08	-9.62918e-02,	-3.23240e-02	
731	2.897344e+08	-9.65870e-02,	-3.23059e-02	
732	2.910717e+08	-9.68847e-02,	-3.22842e-02	
733	2.924152e+08	-9.71848e-02,	-3.22589e-02	
734	2.937650e+08	-9.74872e-02,	-3.22299e-02	
735	2.951209e+08	-9.77921e-02,	-3.21971e-02	
736	2.964831e+08	-9.80994e-02,	-3.21603e-02	
737	2.978516e+08	-9.84090e-02,	-3.21195e-02	
738	2.992265e+08	-9.87209e-02,	-3.20746e-02	
739	3.006076e+08	-9.90352e-02,	-3.20255e-02	
740	3.019952e+08	-9.93519e-02,	-3.19721e-02	
741	3.033891e+08	-9.96708e-02,	-3.19142e-02	
742	3.047895e+08	-9.99920e-02,	-3.18518e-02	
743	3.061963e+08	-1.00315e-01,	-3.17848e-02	
744	3.076097e+08	-1.00641e-01,	-3.17130e-02	
745	3.090295e+08	-1.00969e-01,	-3.16364e-02	
746	3.104560e+08	-1.01299e-01,	-3.15548e-02	
747	3.118890e+08	-1.01631e-01,	-3.14680e-02	
748	3.133286e+08	-1.01965e-01,	-3.13761e-02	
749	3.147748e+08	-1.02301e-01,	-3.12788e-02	
750	3.162278e+08	-1.02640e-01,	-3.11761e-02	

Index   frequency       v_v1#branch                     
--------------------------------------------------------------------------------
751	3.176874e+08	-1.02980e-01,	-3.10678e-02	
752	3.191538e+08	-1.03322e-01,	-3.09537e-02	
753	3.206269e+08	-1.03666e-01,	-3.08339e-02	
754	3.221069e+08	-1.04012e-01,	-3.07080e-02	
755	3.235937e+08	-1.04359e-01,	-3.05761e-02	
756	3.250873e+08	-1.04708e-01,	-3.04379e-02	
757	3.265878e+08	-1.05059e-01,	-3.02933e-02	
758	3.280953e+08	-1.05411e-01,	-3.01422e-02	
759	3.296097e+08	-1.05764e-01,	-2.99845e-02	
760	3.311311e+08	-1.06119e-01,	-2.98200e-02	
761	3.326596e+08	-1.06476e-01,	-2.96485e-02	
762	3.341950e+08	-1.06833e-01,	-2.94700e-02	
763	3.357376e+08	-1.07192e-01,	-2.92842e-02	
764	3.372873e+08	-1.07551e-01,	-2.90910e-02	
765	3.388442e+08	-1.07911e-01,	-2.88904e-02	
766	3.404082e+08	-1.08272e-01,	-2.86820e-02	
767	3.419794e+08	-1.08634e-01,	-2.84659e-02	
768	3.435579e+08	-1.08996e-01,	-2.82418e-02	
769	3.451437e+08	-1.09359e-01,	-2.80095e-02	
770	3.467369e+08	-1.09722e-01,	-2.77690e-02	
771	3.483373e+08	-1.10085e-01,	-2.75200e-02	
772	3.499452e+08	-1.10447e-01,	-2.72625e-02	
773	3.515604e+08	-1.10810e-01,	-2.69962e-02	
774	3.531832e+08	-1.11172e-01,	-2.67211e-02	
775	3.548134e+08	-1.11534e-01,	-2.64369e-02	
776	3.564511e+08	-1.11895e-01,	-2.61435e-02	
777	3.580964e+08	-1.12255e-01,	-2.58407e-02	
778	3.597493e+08	-1.12614e-01,	-2.55285e-02	
779	3.614099e+08	-1.12972e-01,	-2.52066e-02	
780	3.630781e+08	-1.13328e-01,	-2.48749e-02	
781	3.647539e+08	-1.13682e-01,	-2.45333e-02	
782	3.664376e+08	-1.14035e-01,	-2.41816e-02	
783	3.681290e+08	-1.14385e-01,	-2.38196e-02	
784	3.698282e+08	-1.14733e-01,	-2.34473e-02	
785	3.715352e+08	-1.15078e-01,	-2.30645e-02	
786	3.732502e+08	-1.15420e-01,	-2.26711e-02	
787	3.749730e+08	-1.15758e-01,	-2.22669e-02	
788	3.767038e+08	-1.16094e-01,	-2.18518e-02	
789	3.784426e+08	-1.16425e-01,	-2.14257e-02	
790	3.801894e+08	-1.16753e-01,	-2.09885e-02	
791	3.819443e+08	-1.17076e-01,	-2.05401e-02	
792	3.837072e+08	-1.17394e-01,	-2.00804e-02	
793	3.854784e+08	-1.17707e-01,	-1.96092e-02	
794	3.872576e+08	-1.18014e-01,	-1.91265e-02	
795	3.890451e+08	-1.18316e-01,	-1.86322e-02	
796	3.908409e+08	-1.18612e-01,	-1.81263e-02	
797	3.926449e+08	-1.18901e-01,	-1.76087e-02	
798	3.944573e+08	-1.19183e-01,	-1.70792e-02	
799	3.962780e+08	-1.19458e-01,	-1.65380e-02	
800	3.981072e+08	-1.19726e-01,	-1.59849e-02	
801	3.999447e+08	-1.19985e-01,	-1.54199e-02	
802	4.017908e+08	-1.20235e-01,	-1.48431e-02	
803	4.036454e+08	-1.20477e-01,	-1.42544e-02	
804	4.055085e+08	-1.20710e-01,	-1.36538e-02	
805	4.073803e+08	-1.20932e-01,	-1.30414e-02	
806	4.092607e+08	-1.21144e-01,	-1.24172e-02	
807	4.111497e+08	-1.21346e-01,	-1.17813e-02	
808	4.130475e+08	-1.21536e-01,	-1.11338e-02	

Index   frequency       v_v1#branch                     
--------------------------------------------------------------------------------
809	4.149540e+08	-1.21714e-01,	-1.04748e-02	
810	4.168694e+08	-1.21881e-01,	-9.80427e-03	
811	4.187936e+08	-1.22035e-01,	-9.12250e-03	
812	4.207266e+08	-1.22175e-01,	-8.42959e-03	
813	4.226686e+08	-1.22302e-01,	-7.72571e-03	
814	4.246196e+08	-1.22415e-01,	-7.01106e-03	
815	4.265795e+08	-1.22513e-01,	-6.28583e-03	
816	4.285485e+08	-1.22596e-01,	-5.55028e-03	
817	4.305266e+08	-1.22663e-01,	-4.80465e-03	
818	4.325138e+08	-1.22714e-01,	-4.04923e-03	
819	4.345102e+08	-1.22749e-01,	-3.28432e-03	
820	4.365158e+08	-1.22766e-01,	-2.51023e-03	
821	4.385307e+08	-1.22765e-01,	-1.72733e-03	
822	4.405549e+08	-1.22747e-01,	-9.35982e-04	
823	4.425884e+08	-1.22710e-01,	-1.36590e-04	
824	4.446313e+08	-1.22653e-01,	6.704221e-04	
825	4.466836e+08	-1.22577e-01,	1.484607e-03	
826	4.487454e+08	-1.22481e-01,	2.305490e-03	
827	4.508167e+08	-1.22364e-01,	3.132572e-03	
828	4.528976e+08	-1.22227e-01,	3.965328e-03	
829	4.549881e+08	-1.22068e-01,	4.803209e-03	
830	4.570882e+08	-1.21887e-01,	5.645641e-03	
831	4.591980e+08	-1.21684e-01,	6.492025e-03	
832	4.613176e+08	-1.21458e-01,	7.341738e-03	
833	4.634469e+08	-1.21210e-01,	8.194136e-03	
834	4.655861e+08	-1.20938e-01,	9.048548e-03	
835	4.677351e+08	-1.20642e-01,	9.904285e-03	
836	4.698941e+08	-1.20323e-01,	1.076063e-02	
837	4.720630e+08	-1.19980e-01,	1.161686e-02	
838	4.742420e+08	-1.19612e-01,	1.247222e-02	
839	4.764310e+08	-1.19219e-01,	1.332594e-02	
840	4.786301e+08	-1.18802e-01,	1.417723e-02	
841	4.808393e+08	-1.18360e-01,	1.502530e-02	
842	4.830588e+08	-1.17893e-01,	1.586932e-02	
843	4.852885e+08	-1.17401e-01,	1.670847e-02	
844	4.875285e+08	-1.16884e-01,	1.754191e-02	
845	4.897788e+08	-1.16342e-01,	1.836879e-02	
846	4.920395e+08	-1.15774e-01,	1.918827e-02	
847	4.943107e+08	-1.15182e-01,	1.999948e-02	
848	4.965923e+08	-1.14565e-01,	2.080155e-02	
849	4.988845e+08	-1.13923e-01,	2.159364e-02	
850	5.011872e+08	-1.13256e-01,	2.237486e-02	
851	5.035006e+08	-1.12565e-01,	2.314437e-02	
852	5.058247e+08	-1.11850e-01,	2.390131e-02	
853	5.081594e+08	-1.11111e-01,	2.464484e-02	
854	5.105050e+08	-1.10348e-01,	2.537412e-02	
855	5.128614e+08	-1.09563e-01,	2.608832e-02	
856	5.152286e+08	-1.08754e-01,	2.678663e-02	
857	5.176068e+08	-1.07924e-01,	2.746826e-02	
858	5.199960e+08	-1.07072e-01,	2.813243e-02	
859	5.223962e+08	-1.06198e-01,	2.877839e-02	
860	5.248075e+08	-1.05304e-01,	2.940541e-02	
861	5.272299e+08	-1.04390e-01,	3.001277e-02	
862	5.296634e+08	-1.03456e-01,	3.059979e-02	
863	5.321083e+08	-1.02503e-01,	3.116582e-02	
864	5.345644e+08	-1.01532e-01,	3.171023e-02	
865	5.370318e+08	-1.00544e-01,	3.223243e-02	
866	5.395106e+08	-9.95394e-02,	3.273185e-02	

Index   frequency       v_v1#branch                     
--------------------------------------------------------------------------------
867	5.420009e+08	-9.85186e-02,	3.320798e-02	
868	5.445027e+08	-9.74826e-02,	3.366031e-02	
869	5.470160e+08	-9.64322e-02,	3.408839e-02	
870	5.495409e+08	-9.53683e-02,	3.449180e-02	
871	5.520774e+08	-9.42916e-02,	3.487015e-02	
872	5.546257e+08	-9.32030e-02,	3.522312e-02	
873	5.571857e+08	-9.21033e-02,	3.555038e-02	
874	5.597576e+08	-9.09935e-02,	3.585168e-02	
875	5.623413e+08	-8.98743e-02,	3.612678e-02	
876	5.649370e+08	-8.87466e-02,	3.637550e-02	
877	5.675446e+08	-8.76113e-02,	3.659770e-02	
878	5.701643e+08	-8.64694e-02,	3.679326e-02	
879	5.727960e+08	-8.53215e-02,	3.696211e-02	
880	5.754399e+08	-8.41686e-02,	3.710421e-02	
881	5.780960e+08	-8.30116e-02,	3.721959e-02	
882	5.807644e+08	-8.18513e-02,	3.730826e-02	
883	5.834451e+08	-8.06886e-02,	3.737031e-02	
884	5.861382e+08	-7.95242e-02,	3.740585e-02	
885	5.888437e+08	-7.83590e-02,	3.741503e-02	
886	5.915616e+08	-7.71937e-02,	3.739801e-02	
887	5.942922e+08	-7.60292e-02,	3.735501e-02	
888	5.970353e+08	-7.48662e-02,	3.728627e-02	
889	5.997911e+08	-7.37055e-02,	3.719204e-02	
890	6.025596e+08	-7.25478e-02,	3.707263e-02	
891	6.053409e+08	-7.13937e-02,	3.692834e-02	
892	6.081350e+08	-7.02440e-02,	3.675952e-02	
893	6.109420e+08	-6.90993e-02,	3.656653e-02	
894	6.137620e+08	-6.79602e-02,	3.634976e-02	
895	6.165950e+08	-6.68274e-02,	3.610961e-02	
896	6.194411e+08	-6.57014e-02,	3.584650e-02	
897	6.223003e+08	-6.45828e-02,	3.556088e-02	
898	6.251727e+08	-6.34721e-02,	3.525318e-02	
899	6.280584e+08	-6.23698e-02,	3.492388e-02	
900	6.309573e+08	-6.12764e-02,	3.457345e-02	
901	6.338697e+08	-6.01924e-02,	3.420238e-02	
902	6.367955e+08	-5.91181e-02,	3.381117e-02	
903	6.397348e+08	-5.80540e-02,	3.340032e-02	
904	6.426877e+08	-5.70005e-02,	3.297033e-02	
905	6.456542e+08	-5.59579e-02,	3.252173e-02	
906	6.486344e+08	-5.49265e-02,	3.205502e-02	
907	6.516284e+08	-5.39066e-02,	3.157073e-02	
908	6.546362e+08	-5.28985e-02,	3.106938e-02	
909	6.576578e+08	-5.19025e-02,	3.055148e-02	
910	6.606934e+08	-5.09188e-02,	3.001757e-02	
911	6.637431e+08	-4.99476e-02,	2.946814e-02	
912	6.668068e+08	-4.89890e-02,	2.890373e-02	
913	6.698846e+08	-4.80433e-02,	2.832483e-02	
914	6.729767e+08	-4.71106e-02,	2.773197e-02	
915	6.760830e+08	-4.61910e-02,	2.712563e-02	
916	6.792036e+08	-4.52846e-02,	2.650631e-02	
917	6.823387e+08	-4.43915e-02,	2.587450e-02	
918	6.854882e+08	-4.35118e-02,	2.523068e-02	
919	6.886523e+08	-4.26455e-02,	2.457532e-02	
920	6.918310e+08	-4.17927e-02,	2.390890e-02	
921	6.950243e+08	-4.09533e-02,	2.323186e-02	
922	6.982324e+08	-4.01274e-02,	2.254466e-02	
923	7.014553e+08	-3.93150e-02,	2.184773e-02	
924	7.046931e+08	-3.85161e-02,	2.114150e-02	

Index   frequency       v_v1#branch                     
--------------------------------------------------------------------------------
925	7.079458e+08	-3.77306e-02,	2.042639e-02	
926	7.112135e+08	-3.69584e-02,	1.970281e-02	
927	7.144963e+08	-3.61996e-02,	1.897116e-02	
928	7.177943e+08	-3.54540e-02,	1.823183e-02	
929	7.211075e+08	-3.47216e-02,	1.748519e-02	
930	7.244360e+08	-3.40023e-02,	1.673160e-02	
931	7.277798e+08	-3.32960e-02,	1.597144e-02	
932	7.311391e+08	-3.26025e-02,	1.520504e-02	
933	7.345139e+08	-3.19218e-02,	1.443274e-02	
934	7.379042e+08	-3.12538e-02,	1.365487e-02	
935	7.413102e+08	-3.05983e-02,	1.287173e-02	
936	7.447320e+08	-2.99552e-02,	1.208363e-02	
937	7.481695e+08	-2.93243e-02,	1.129088e-02	
938	7.516229e+08	-2.87056e-02,	1.049374e-02	
939	7.550922e+08	-2.80989e-02,	9.692495e-03	
940	7.585776e+08	-2.75040e-02,	8.887407e-03	
941	7.620790e+08	-2.69207e-02,	8.078731e-03	
942	7.655966e+08	-2.63490e-02,	7.266709e-03	
943	7.691304e+08	-2.57887e-02,	6.451577e-03	
944	7.726806e+08	-2.52395e-02,	5.633559e-03	
945	7.762471e+08	-2.47014e-02,	4.812872e-03	
946	7.798301e+08	-2.41742e-02,	3.989724e-03	
947	7.834296e+08	-2.36576e-02,	3.164312e-03	
948	7.870458e+08	-2.31517e-02,	2.336828e-03	
949	7.906786e+08	-2.26561e-02,	1.507453e-03	
950	7.943282e+08	-2.21707e-02,	6.763600e-04	
951	7.979947e+08	-2.16953e-02,	-1.56284e-04	
952	8.016781e+08	-2.12298e-02,	-9.90322e-04	
953	8.053784e+08	-2.07741e-02,	-1.82560e-03	
954	8.090959e+08	-2.03278e-02,	-2.66198e-03	
955	8.128305e+08	-1.98909e-02,	-3.49932e-03	
956	8.165824e+08	-1.94632e-02,	-4.33750e-03	
957	8.203515e+08	-1.90446e-02,	-5.17638e-03	
958	8.241381e+08	-1.86348e-02,	-6.01586e-03	
959	8.279422e+08	-1.82338e-02,	-6.85582e-03	
960	8.317638e+08	-1.78412e-02,	-7.69616e-03	
961	8.356030e+08	-1.74571e-02,	-8.53678e-03	
962	8.394600e+08	-1.70812e-02,	-9.37758e-03	
963	8.433348e+08	-1.67133e-02,	-1.02185e-02	
964	8.472274e+08	-1.63534e-02,	-1.10594e-02	
965	8.511380e+08	-1.60012e-02,	-1.19003e-02	
966	8.550667e+08	-1.56566e-02,	-1.27410e-02	
967	8.590135e+08	-1.53194e-02,	-1.35815e-02	
968	8.629785e+08	-1.49896e-02,	-1.44218e-02	
969	8.669619e+08	-1.46669e-02,	-1.52617e-02	
970	8.709636e+08	-1.43512e-02,	-1.61013e-02	
971	8.749838e+08	-1.40424e-02,	-1.69404e-02	
972	8.790225e+08	-1.37403e-02,	-1.77791e-02	
973	8.830799e+08	-1.34448e-02,	-1.86173e-02	
974	8.871560e+08	-1.31557e-02,	-1.94549e-02	
975	8.912509e+08	-1.28730e-02,	-2.02919e-02	
976	8.953648e+08	-1.25964e-02,	-2.11282e-02	
977	8.994976e+08	-1.23259e-02,	-2.19640e-02	
978	9.036495e+08	-1.20613e-02,	-2.27990e-02	
979	9.078205e+08	-1.18025e-02,	-2.36333e-02	
980	9.120108e+08	-1.15493e-02,	-2.44670e-02	
981	9.162205e+08	-1.13018e-02,	-2.52998e-02	
982	9.204496e+08	-1.10596e-02,	-2.61319e-02	

Index   frequency       v_v1#branch                     
--------------------------------------------------------------------------------
983	9.246982e+08	-1.08228e-02,	-2.69633e-02	
984	9.289664e+08	-1.05912e-02,	-2.77938e-02	
985	9.332543e+08	-1.03646e-02,	-2.86236e-02	
986	9.375620e+08	-1.01431e-02,	-2.94526e-02	
987	9.418896e+08	-9.92637e-03,	-3.02808e-02	
988	9.462372e+08	-9.71443e-03,	-3.11081e-02	
989	9.506048e+08	-9.50716e-03,	-3.19347e-02	
990	9.549926e+08	-9.30444e-03,	-3.27604e-02	
991	9.594006e+08	-9.10618e-03,	-3.35854e-02	
992	9.638290e+08	-8.91227e-03,	-3.44096e-02	
993	9.682779e+08	-8.72263e-03,	-3.52329e-02	
994	9.727472e+08	-8.53716e-03,	-3.60555e-02	
995	9.772372e+08	-8.35575e-03,	-3.68773e-02	
996	9.817479e+08	-8.17834e-03,	-3.76984e-02	
997	9.862795e+08	-8.00482e-03,	-3.85187e-02	
998	9.908319e+08	-7.83511e-03,	-3.93383e-02	
999	9.954054e+08	-7.66912e-03,	-4.01571e-02	
1000	1.000000e+09	-7.50677e-03,	-4.09753e-02	
1001	1.004616e+09	-7.34799e-03,	-4.17927e-02	
1002	1.009253e+09	-7.19268e-03,	-4.26095e-02	
1003	1.013911e+09	-7.04078e-03,	-4.34256e-02	
1004	1.018591e+09	-6.89221e-03,	-4.42410e-02	
1005	1.023293e+09	-6.74689e-03,	-4.50559e-02	
1006	1.028016e+09	-6.60474e-03,	-4.58701e-02	
1007	1.032761e+09	-6.46571e-03,	-4.66838e-02	
1008	1.037528e+09	-6.32972e-03,	-4.74969e-02	
1009	1.042317e+09	-6.19669e-03,	-4.83095e-02	
1010	1.047129e+09	-6.06657e-03,	-4.91215e-02	
1011	1.051962e+09	-5.93929e-03,	-4.99331e-02	
1012	1.056818e+09	-5.81478e-03,	-5.07442e-02	
1013	1.061696e+09	-5.69299e-03,	-5.15549e-02	
1014	1.066596e+09	-5.57385e-03,	-5.23651e-02	
1015	1.071519e+09	-5.45730e-03,	-5.31750e-02	
1016	1.076465e+09	-5.34328e-03,	-5.39845e-02	
1017	1.081434e+09	-5.23174e-03,	-5.47936e-02	
1018	1.086426e+09	-5.12263e-03,	-5.56025e-02	
1019	1.091440e+09	-5.01588e-03,	-5.64110e-02	
1020	1.096478e+09	-4.91144e-03,	-5.72193e-02	
1021	1.101539e+09	-4.80927e-03,	-5.80274e-02	
1022	1.106624e+09	-4.70930e-03,	-5.88353e-02	
1023	1.111732e+09	-4.61150e-03,	-5.96430e-02	
1024	1.116863e+09	-4.51582e-03,	-6.04505e-02	
1025	1.122018e+09	-4.42220e-03,	-6.12580e-02	
1026	1.127197e+09	-4.33060e-03,	-6.20653e-02	
1027	1.132400e+09	-4.24097e-03,	-6.28726e-02	
1028	1.137627e+09	-4.15327e-03,	-6.36799e-02	
1029	1.142878e+09	-4.06746e-03,	-6.44871e-02	
1030	1.148154e+09	-3.98350e-03,	-6.52944e-02	
1031	1.153453e+09	-3.90134e-03,	-6.61018e-02	
1032	1.158777e+09	-3.82094e-03,	-6.69092e-02	
1033	1.164126e+09	-3.74227e-03,	-6.77168e-02	
1034	1.169499e+09	-3.66528e-03,	-6.85245e-02	
1035	1.174898e+09	-3.58994e-03,	-6.93324e-02	
1036	1.180321e+09	-3.51621e-03,	-7.01405e-02	
1037	1.185769e+09	-3.44406e-03,	-7.09488e-02	
1038	1.191242e+09	-3.37344e-03,	-7.17574e-02	
1039	1.196741e+09	-3.30434e-03,	-7.25663e-02	
1040	1.202264e+09	-3.23670e-03,	-7.33755e-02	

Index   frequency       v_v1#branch                     
--------------------------------------------------------------------------------
1041	1.207814e+09	-3.17051e-03,	-7.41851e-02	
1042	1.213389e+09	-3.10572e-03,	-7.49950e-02	
1043	1.218990e+09	-3.04231e-03,	-7.58054e-02	
1044	1.224616e+09	-2.98024e-03,	-7.66162e-02	
1045	1.230269e+09	-2.91950e-03,	-7.74275e-02	
1046	1.235947e+09	-2.86003e-03,	-7.82394e-02	
1047	1.241652e+09	-2.80183e-03,	-7.90517e-02	
1048	1.247384e+09	-2.74486e-03,	-7.98646e-02	
1049	1.253141e+09	-2.68909e-03,	-8.06781e-02	
1050	1.258925e+09	-2.63450e-03,	-8.14923e-02	
1051	1.264736e+09	-2.58107e-03,	-8.23071e-02	
1052	1.270574e+09	-2.52875e-03,	-8.31226e-02	
1053	1.276439e+09	-2.47754e-03,	-8.39388e-02	
1054	1.282331e+09	-2.42741e-03,	-8.47557e-02	
1055	1.288250e+09	-2.37833e-03,	-8.55735e-02	
1056	1.294196e+09	-2.33028e-03,	-8.63920e-02	
1057	1.300170e+09	-2.28323e-03,	-8.72114e-02	
1058	1.306171e+09	-2.23718e-03,	-8.80316e-02	
1059	1.312200e+09	-2.19208e-03,	-8.88527e-02	
1060	1.318257e+09	-2.14793e-03,	-8.96748e-02	
1061	1.324342e+09	-2.10471e-03,	-9.04978e-02	
1062	1.330454e+09	-2.06238e-03,	-9.13218e-02	
1063	1.336596e+09	-2.02094e-03,	-9.21468e-02	
1064	1.342765e+09	-1.98036e-03,	-9.29728e-02	
1065	1.348963e+09	-1.94063e-03,	-9.37999e-02	
1066	1.355189e+09	-1.90172e-03,	-9.46281e-02	
1067	1.361445e+09	-1.86362e-03,	-9.54574e-02	
1068	1.367729e+09	-1.82631e-03,	-9.62879e-02	
1069	1.374042e+09	-1.78978e-03,	-9.71196e-02	
1070	1.380384e+09	-1.75400e-03,	-9.79525e-02	
1071	1.386756e+09	-1.71896e-03,	-9.87866e-02	
1072	1.393157e+09	-1.68465e-03,	-9.96220e-02	
1073	1.399587e+09	-1.65105e-03,	-1.00459e-01	
1074	1.406048e+09	-1.61814e-03,	-1.01297e-01	
1075	1.412538e+09	-1.58591e-03,	-1.02136e-01	
1076	1.419058e+09	-1.55434e-03,	-1.02977e-01	
1077	1.425608e+09	-1.52343e-03,	-1.03819e-01	
1078	1.432188e+09	-1.49315e-03,	-1.04663e-01	
1079	1.438799e+09	-1.46349e-03,	-1.05508e-01	
1080	1.445440e+09	-1.43444e-03,	-1.06354e-01	
1081	1.452112e+09	-1.40599e-03,	-1.07202e-01	
1082	1.458814e+09	-1.37812e-03,	-1.08052e-01	
1083	1.465548e+09	-1.35082e-03,	-1.08903e-01	
1084	1.472313e+09	-1.32408e-03,	-1.09756e-01	
1085	1.479108e+09	-1.29789e-03,	-1.10610e-01	
1086	1.485936e+09	-1.27223e-03,	-1.11467e-01	
1087	1.492794e+09	-1.24710e-03,	-1.12324e-01	
1088	1.499685e+09	-1.22248e-03,	-1.13184e-01	
1089	1.506607e+09	-1.19836e-03,	-1.14045e-01	
1090	1.513561e+09	-1.17473e-03,	-1.14908e-01	
1091	1.520548e+09	-1.15159e-03,	-1.15773e-01	
1092	1.527566e+09	-1.12891e-03,	-1.16640e-01	
1093	1.534617e+09	-1.10669e-03,	-1.17508e-01	
1094	1.541700e+09	-1.08493e-03,	-1.18379e-01	
1095	1.548817e+09	-1.06360e-03,	-1.19251e-01	
1096	1.555966e+09	-1.04271e-03,	-1.20125e-01	
1097	1.563148e+09	-1.02224e-03,	-1.21001e-01	
1098	1.570363e+09	-1.00219e-03,	-1.21879e-01	

Index   frequency       v_v1#branch                     
--------------------------------------------------------------------------------
1099	1.577611e+09	-9.82537e-04,	-1.22759e-01	
1100	1.584893e+09	-9.63284e-04,	-1.23642e-01	
1101	1.592209e+09	-9.44420e-04,	-1.24526e-01	
1102	1.599558e+09	-9.25936e-04,	-1.25412e-01	
1103	1.606941e+09	-9.07825e-04,	-1.26301e-01	
1104	1.614359e+09	-8.90078e-04,	-1.27191e-01	
1105	1.621810e+09	-8.72688e-04,	-1.28084e-01	
1106	1.629296e+09	-8.55648e-04,	-1.28979e-01	
1107	1.636817e+09	-8.38950e-04,	-1.29876e-01	
1108	1.644372e+09	-8.22587e-04,	-1.30776e-01	
1109	1.651962e+09	-8.06553e-04,	-1.31677e-01	
1110	1.659587e+09	-7.90839e-04,	-1.32581e-01	
1111	1.667247e+09	-7.75441e-04,	-1.33488e-01	
1112	1.674943e+09	-7.60350e-04,	-1.34396e-01	
1113	1.682674e+09	-7.45562e-04,	-1.35307e-01	
1114	1.690441e+09	-7.31069e-04,	-1.36221e-01	
1115	1.698244e+09	-7.16865e-04,	-1.37137e-01	
1116	1.706082e+09	-7.02944e-04,	-1.38055e-01	
1117	1.713957e+09	-6.89301e-04,	-1.38976e-01	
1118	1.721869e+09	-6.75930e-04,	-1.39899e-01	
1119	1.729816e+09	-6.62826e-04,	-1.40825e-01	
1120	1.737801e+09	-6.49981e-04,	-1.41754e-01	
1121	1.745822e+09	-6.37393e-04,	-1.42685e-01	
1122	1.753881e+09	-6.25054e-04,	-1.43618e-01	
1123	1.761976e+09	-6.12960e-04,	-1.44554e-01	
1124	1.770109e+09	-6.01107e-04,	-1.45493e-01	
1125	1.778279e+09	-5.89488e-04,	-1.46435e-01	
1126	1.786488e+09	-5.78100e-04,	-1.47379e-01	
1127	1.794734e+09	-5.66937e-04,	-1.48326e-01	

CPU time since last call: 0.050 seconds.

Total CPU time: 0.050 seconds.

Current dynamic memory usage = 0 bytes,
Dynamic memory limit = 8796093017986.601562 MB.

